McPAT (version 1.3 of Feb, 2015) is computing the target processor...
 

McPAT (version 1.3 of Feb, 2015) results  (current print level is 5)
*****************************************************************************************
  Technology 40 nm
  Using Long Channel Devices When Appropriate
  Interconnect metal projection= conservative interconnect technology projection
  Core clock Rate(MHz) 1000

*****************************************************************************************
Processor: 
  Area = 1.79965 mm^2
  Peak Power = 83.5044 W
  Total Leakage = 0.0347702 W
  Peak Dynamic = 83.4696 W
  Subthreshold Leakage = 0.0164279 W
  Gate Leakage = 0.0183423 W
  Runtime Dynamic = inf W

  Total Cores: 1 cores 
  Device Type= ITRS low operating power device type
    Area = 1.71513 mm^2
    Peak Dynamic = 1.05584 W
    Subthreshold Leakage = 0.0161081 W
    Gate Leakage = 0.0176818 W
    Runtime Dynamic = inf W

  Total MCs: 1 Memory Controllers 
  Device Type= ITRS low operating power device type
    Area = 0.0845179 mm^2
    Peak Dynamic = 82.4137 W
    Subthreshold Leakage = 0.000319788 W
    Gate Leakage = 0.000660487 W
    Runtime Dynamic = inf W

*****************************************************************************************
Core:
      Area = 1.71513 mm^2
      Peak Dynamic = 1.05584 W
      Subthreshold Leakage = 0.0161081 W
      Gate Leakage = 0.0176818 W
      Runtime Dynamic = inf W

      Instruction Fetch Unit:
        Area = 0.810161 mm^2
        Peak Dynamic = 0.617746 W
        Subthreshold Leakage = 0.00810063 W
        Gate Leakage = 0.00840651 W
        Runtime Dynamic = inf W

          Instruction Cache:
            Area = 0.547501 mm^2
            Peak Dynamic = 0.471744 W
            Subthreshold Leakage = 0.00618081 W
            Gate Leakage = 0.00699429 W
            Runtime Dynamic = inf W

          Branch Target Buffer:
            Area = 0.0846261 mm^2
            Peak Dynamic = 0.0105653 W
            Subthreshold Leakage = 0.000434894 W
            Gate Leakage = 0.000304786 W
            Runtime Dynamic = inf W

          Branch Predictor:
            Area = 0.162876 mm^2
            Peak Dynamic = 0.00714405 W
            Subthreshold Leakage = 0.00130673 W
            Gate Leakage = 0.000903007 W
            Runtime Dynamic = -nan W

              Global Predictor:
                Area = 0.0649978 mm^2
                Peak Dynamic = 0.0023661 W
                Subthreshold Leakage = 0.000516649 W
                Gate Leakage = 0.00035472 W
                Runtime Dynamic = -nan W

              Local Predictor:
              L1_Local Predictor:
                Area = 0.0160271 mm^2
                Peak Dynamic = 0.00108489 W
                Subthreshold Leakage = 0.000134253 W
                Gate Leakage = 9.46651e-05 W
                Runtime Dynamic = -nan W

              L2_Local Predictor:
                Area = 0.0160271 mm^2
                Peak Dynamic = 0.00108489 W
                Subthreshold Leakage = 0.000134253 W
                Gate Leakage = 9.46651e-05 W
                Runtime Dynamic = -nan W

              Chooser:
                Area = 0.0649978 mm^2
                Peak Dynamic = 0.0023661 W
                Subthreshold Leakage = 0.000516649 W
                Gate Leakage = 0.00035472 W
                Runtime Dynamic = -nan W

              RAS:
                Area = 0.000825971 mm^2
                Peak Dynamic = 0.00024207 W
                Subthreshold Leakage = 4.91968e-06 W
                Gate Leakage = 4.2374e-06 W
                Runtime Dynamic = -nan W

          Instruction Buffer:
            Area = 0.00882485 mm^2
            Peak Dynamic = 0.0977466 W
            Subthreshold Leakage = 6.22343e-05 W
            Gate Leakage = 4.96656e-05 W
            Runtime Dynamic = inf W

          Instruction Decoder:
            Area = 0.00468731 mm^2
            Peak Dynamic = 0.029405 W
            Subthreshold Leakage = 9.40317e-05 W
            Gate Leakage = 8.38587e-05 W
            Runtime Dynamic = inf W

      Renaming Unit:
        Area = 0.0160659 mm^2
        Peak Dynamic = 0.0119757 W
        Subthreshold Leakage = 5.90215e-05 W
        Gate Leakage = 0.000116732 W
        Runtime Dynamic = inf W

          Int Front End RAT with 1 internal checkpoints:
            Area = 0.00390336 mm^2
            Peak Dynamic = 0.00552302 W
            Subthreshold Leakage = 9.95256e-06 W
            Gate Leakage = 1.09741e-05 W
            Runtime Dynamic = inf W

          FP Front End RAT with 1 internal checkpoints:
            Area = 0.00203071 mm^2
            Peak Dynamic = 0.00244486 W
            Subthreshold Leakage = 8.31122e-06 W
            Gate Leakage = 1.20567e-05 W
            Runtime Dynamic = inf W

          Free List:
            Area = 0.00474032 mm^2
            Peak Dynamic = 0.00157874 W
            Subthreshold Leakage = 9.5856e-06 W
            Gate Leakage = 9.87904e-06 W
            Runtime Dynamic = inf W

          FP Free List:
            Area = 0.00374541 mm^2
            Peak Dynamic = 0.00116094 W
            Subthreshold Leakage = 9.23741e-06 W
            Gate Leakage = 1.29204e-05 W
            Runtime Dynamic = inf W

      Load Store Unit:
        Area = 0.562707 mm^2
        Peak Dynamic = 0.340012 W
        Subthreshold Leakage = 0.00611448 W
        Gate Leakage = 0.00697816 W
        Runtime Dynamic = inf W

          Data Cache:
            Area = 0.500537 mm^2
            Peak Dynamic = 0.333716 W
            Subthreshold Leakage = 0.00600563 W
            Gate Leakage = 0.00680509 W
            Runtime Dynamic = inf W

          StoreQ:
            Area = 0.00951832 mm^2
            Peak Dynamic = 0.00539473 W
            Subthreshold Leakage = 8.69175e-05 W
            Gate Leakage = 0.000102166 W
            Runtime Dynamic = -nan W

      Memory Management Unit:
        Area = 0.0235719 mm^2
        Peak Dynamic = 0.00670406 W
        Subthreshold Leakage = 0.00020835 W
        Runtime Dynamic = inf W

          Itlb:
            Area = 0.0109629 mm^2
            Peak Dynamic = 0.00314149 W
            Subthreshold Leakage = 9.32078e-05 W
            Gate Leakage = 0.00010099 W
            Runtime Dynamic = inf W

          Dtlb:
            Area = 0.0109629 mm^2
            Peak Dynamic = 0.00247828 W
            Subthreshold Leakage = 9.32078e-05 W
            Gate Leakage = 0.00010099 W
            Runtime Dynamic = inf W

      Execution Unit:
        Area = 0.242756 mm^2
        Peak Dynamic = 0.079407 W
        Subthreshold Leakage = 0.000632702 W
        Runtime Dynamic = inf W

          Register Files:
            Area = 0.172904 mm^2
            Peak Dynamic = 0.0296329 W
            Subthreshold Leakage = 0.00021843 W
            Gate Leakage = 0.000203433 W
            Runtime Dynamic = -nan W

              Integer RF:
                Area = 0.123956 mm^2
                Peak Dynamic = 0.0281905 W
                Subthreshold Leakage = 0.000140392 W
                Gate Leakage = 0.00013123 W
                Runtime Dynamic = inf W

              Floating Point RF:
                Area = 0.0489472 mm^2
                Peak Dynamic = 0.00144241 W
                Subthreshold Leakage = 7.80381e-05 W
                Gate Leakage = 7.22038e-05 W
                Runtime Dynamic = inf W

          Instruction Scheduler:
            Area = 0.0675611 mm^2
            Peak Dynamic = 0.0406962 W
            Subthreshold Leakage = 0.000343788 W
            Gate Leakage = 0.000423972 W
            Runtime Dynamic = inf W

              Instruction Window:
                Area = 0.0621798 mm^2
                Peak Dynamic = 0.0338847 W
                Subthreshold Leakage = 0.000290616 W
                Gate Leakage = 0.000350863 W
                Runtime Dynamic = inf W

              FP Instruction Window:
                Area = 0.00538133 mm^2
                Peak Dynamic = 0.00681143 W
                Subthreshold Leakage = 5.31726e-05 W
                Gate Leakage = 7.3109e-05 W
                Runtime Dynamic = -nan W

          Integer ALUs (Count: 0 ):
            Area = 0 mm^2
            Peak Dynamic = 0 W
            Subthreshold Leakage = 0 W
            Gate Leakage = 0 W
            Runtime Dynamic = -nan W

          Results Broadcast Bus:
            Area Overhead = 0.000645071 mm^2
            Peak Dynamic = 0.00811419 W
            Subthreshold Leakage = 4.85483e-05 W
            Gate Leakage = 5.63677e-05 W
            Runtime Dynamic = inf W

*****************************************************************************************
Memory Controller:
      Area = 0.0845179 mm^2
      Peak Dynamic = 82.4137 W
      Subthreshold Leakage = 0.000319788 W
      Gate Leakage = 0.000660487 W
      Runtime Dynamic = inf W

      Front End Engine:
        Area = 0.0774173 mm^2
        Peak Dynamic = 68.3178 W
        Subthreshold Leakage = 0.000302261 W
        Gate Leakage = 0.00059425 W
        Runtime Dynamic = inf W

      Transaction Engine:
        Area = 0.00710059 mm^2
        Peak Dynamic = 14.0959 W
        Subthreshold Leakage = 1.75268e-05 W
        Gate Leakage = 6.62374e-05 W
        Runtime Dynamic = inf W

*****************************************************************************************
