McPAT (version 1.3 of Feb, 2015) is computing the target processor...
 
The value of homogeneous_L1Directories or number_of_L1Directories is not correct!