McPAT (version 1.3 of Feb, 2015) is computing the target processor...
 

McPAT (version 1.3 of Feb, 2015) results  (current print level is 5)
*****************************************************************************************
  Technology 40 nm
  Using Long Channel Devices When Appropriate
  Interconnect metal projection= conservative interconnect technology projection
  Core clock Rate(MHz) 1000

*****************************************************************************************
Processor: 
  Area = 3.30669 mm^2
  Peak Power = 1.69753 W
  Total Leakage = 0.0729433 W
  Peak Dynamic = 1.62459 W
  Subthreshold Leakage = 0.0321012 W
  Gate Leakage = 0.0408421 W
  Runtime Dynamic = 0.145561 W

  Total Cores: 1 cores 
  Device Type= ITRS low operating power device type
    Area = 2.76584 mm^2
    Peak Dynamic = 1.29319 W
    Subthreshold Leakage = 0.0303207 W
    Gate Leakage = 0.0350539 W
    Runtime Dynamic = 0.0223265 W

  Total NoCs (Network/Bus): 
  Device Type= ITRS low operating power device type
    Area = 0.0111415 mm^2
    Peak Dynamic = 0.00641805 W
    Subthreshold Leakage = 0.000121299 W
    Gate Leakage = 0.000169423 W
    Runtime Dynamic = 0.0380174 W

  Total MCs: 1 Memory Controllers 
  Device Type= ITRS low operating power device type
    Area = 0.529714 mm^2
    Peak Dynamic = 0.324983 W
    Subthreshold Leakage = 0.00165926 W
    Gate Leakage = 0.00561872 W
    Runtime Dynamic = 0.085217 W

*****************************************************************************************
Core:
      Area = 2.76584 mm^2
      Peak Dynamic = 1.29319 W
      Subthreshold Leakage = 0.0303207 W
      Gate Leakage = 0.0350539 W
      Runtime Dynamic = 0.0223265 W

      Instruction Fetch Unit:
        Area = 0.557046 mm^2
        Peak Dynamic = 0.598693 W
        Subthreshold Leakage = 0.00632016 W
        Gate Leakage = 0.00717034 W
        Runtime Dynamic = 0.0141957 W

          Instruction Cache:
            Area = 0.541888 mm^2
            Peak Dynamic = 0.470401 W
            Subthreshold Leakage = 0.00614196 W
            Gate Leakage = 0.00696591 W
            Runtime Dynamic = 0.0104613 W

          Instruction Buffer:
            Area = 0.00882485 mm^2
            Peak Dynamic = 0.0977466 W
            Subthreshold Leakage = 6.22343e-05 W
            Gate Leakage = 4.96656e-05 W
            Runtime Dynamic = 0.00126312 W

          Instruction Decoder:
            Area = 0.00468731 mm^2
            Peak Dynamic = 0.029405 W
            Subthreshold Leakage = 9.40317e-05 W
            Gate Leakage = 8.38587e-05 W
            Runtime Dynamic = 0.00132995 W

      Renaming Unit:
        Area = 0.0216361 mm^2
        Peak Dynamic = 0.0152673 W
        Subthreshold Leakage = 7.57584e-05 W
        Gate Leakage = 0.000137335 W
        Runtime Dynamic = 0.00126817 W

          Int Front End RAT with 0 internal checkpoints:
            Area = 0.00390336 mm^2
            Peak Dynamic = 0.00552302 W
            Subthreshold Leakage = 9.95256e-06 W
            Gate Leakage = 1.09741e-05 W
            Runtime Dynamic = 3.32772e-12 W

          FP Front End RAT with 0 internal checkpoints:
            Area = 0.00203071 mm^2
            Peak Dynamic = 0.00244486 W
            Subthreshold Leakage = 8.31122e-06 W
            Gate Leakage = 1.20567e-05 W
            Runtime Dynamic = 1.78121e-12 W

          Free List:
            Area = 0.00474032 mm^2
            Peak Dynamic = 0.00157874 W
            Subthreshold Leakage = 9.5856e-06 W
            Gate Leakage = 9.87904e-06 W
            Runtime Dynamic = 3.52004e-12 W

          Int Retire RAT: 
            Area = 0.00478383 mm^2
            Peak Dynamic = 0.00285095 W
            Subthreshold Leakage = 1.03202e-05 W
            Gate Leakage = 1.10866e-05 W
            Runtime Dynamic = 3.51165e-12 W

          FP Retire RAT:
            Area = 0.000786361 mm^2
            Peak Dynamic = 0.000440582 W
            Subthreshold Leakage = 6.4167e-06 W
            Gate Leakage = 9.51543e-06 W
            Runtime Dynamic = 1.44876e-12 W

          FP Free List:
            Area = 0.00374541 mm^2
            Peak Dynamic = 0.00116094 W
            Subthreshold Leakage = 9.23741e-06 W
            Gate Leakage = 1.29204e-05 W
            Runtime Dynamic = 2.09337e-12 W

      Load Store Unit:
        Area = 0.755416 mm^2
        Peak Dynamic = 0.506777 W
        Subthreshold Leakage = 0.00797928 W
        Gate Leakage = 0.00916427 W
        Runtime Dynamic = 0.00481456 W

          Data Cache:
            Area = 0.675727 mm^2
            Peak Dynamic = 0.500482 W
            Subthreshold Leakage = 0.00787043 W
            Gate Leakage = 0.0089912 W
            Runtime Dynamic = 0.00345967 W

          StoreQ:
            Area = 0.00951832 mm^2
            Peak Dynamic = 0.00539473 W
            Subthreshold Leakage = 8.69175e-05 W
            Gate Leakage = 0.000102166 W
            Runtime Dynamic = 0.000454487 W

      Memory Management Unit:
        Area = 0.0139422 mm^2
        Peak Dynamic = 0.00407991 W
        Subthreshold Leakage = 0.000129349 W
        Runtime Dynamic = 0.00108429 W

          Itlb:
            Area = 0.006148 mm^2
            Peak Dynamic = 0.00167457 W
            Subthreshold Leakage = 5.37071e-05 W
            Gate Leakage = 6.37284e-05 W
            Runtime Dynamic = 3.89535e-11 W

          Dtlb:
            Area = 0.006148 mm^2
            Peak Dynamic = 0.00132105 W
            Subthreshold Leakage = 5.37071e-05 W
            Gate Leakage = 6.37284e-05 W
            Runtime Dynamic = 3.89535e-11 W

      Execution Unit:
        Area = 1.4265 mm^2
        Peak Dynamic = 0.168368 W
        Subthreshold Leakage = 0.0159605 W
        Runtime Dynamic = 0.000963811 W

          Register Files:
            Area = 0.172904 mm^2
            Peak Dynamic = 0.0551771 W
            Subthreshold Leakage = 0.00021843 W
            Gate Leakage = 0.000203433 W
            Runtime Dynamic = 0 W

              Integer RF:
                Area = 0.123956 mm^2
                Peak Dynamic = 0.0537347 W
                Subthreshold Leakage = 0.000140392 W
                Gate Leakage = 0.00013123 W
                Runtime Dynamic = 2.54449e-11 W

              Floating Point RF:
                Area = 0.0489472 mm^2
                Peak Dynamic = 0.00144241 W
                Subthreshold Leakage = 7.80381e-05 W
                Gate Leakage = 7.22038e-05 W
                Runtime Dynamic = 1.70883e-11 W

          Instruction Scheduler:
            Area = 0.0675611 mm^2
            Peak Dynamic = 0.0406962 W
            Subthreshold Leakage = 0.000343788 W
            Gate Leakage = 0.000423972 W
            Runtime Dynamic = 1.00358e-10 W

              Instruction Window:
                Area = 0.0621798 mm^2
                Peak Dynamic = 0.0338847 W
                Subthreshold Leakage = 0.000290616 W
                Gate Leakage = 0.000350863 W
                Runtime Dynamic = 1.00358e-10 W

              FP Instruction Window:
                Area = 0.00538133 mm^2
                Peak Dynamic = 0.00681143 W
                Subthreshold Leakage = 5.31726e-05 W
                Gate Leakage = 7.3109e-05 W
                Runtime Dynamic = 0 W

          Integer ALUs (Count: 3 ):
            Area = 0.104135 mm^2
            Peak Dynamic = 0.0141842 W
            Subthreshold Leakage = 0.00345415 W
            Gate Leakage = 0.0040105 W
            Runtime Dynamic = 7.37019e-11 W

          Floating Point Units (FPUs) (Count: 1 ):
            Area = 0.971259 mm^2
            Peak Dynamic = 0 W
            Subthreshold Leakage = 0.00805417 W
            Gate Leakage = 0.00935142 W
            Runtime Dynamic = 2.21106e-10 W

          Complex ALUs (Mul/Div) (Count: 1 ):
            Area = 0.104135 mm^2
            Peak Dynamic = 0.0102027 W
            Subthreshold Leakage = 0.00345415 W
            Gate Leakage = 0.0040105 W
            Runtime Dynamic = 1.47404e-10 W

          Results Broadcast Bus:
            Area Overhead = 0.00486214 mm^2
            Peak Dynamic = 0.0471442 W
            Subthreshold Leakage = 0.000413867 W
            Gate Leakage = 0.000480526 W
            Runtime Dynamic = 4.76684e-10 W

*****************************************************************************************
Memory Controller:
      Area = 0.529714 mm^2
      Peak Dynamic = 0.324983 W
      Subthreshold Leakage = 0.00165926 W
      Gate Leakage = 0.00561872 W
      Runtime Dynamic = 0.085217 W

      Front End Engine:
        Area = 0.0869779 mm^2
        Peak Dynamic = 0.0264175 W
        Subthreshold Leakage = 0.000257111 W
        Gate Leakage = 0.000319726 W
        Runtime Dynamic = 0.00671072 W

      Transaction Engine:
        Area = 0.113609 mm^2
        Peak Dynamic = 0.160252 W
        Subthreshold Leakage = 0.000280429 W
        Gate Leakage = 0.0010598 W
        Runtime Dynamic = 0.0407081 W

      PHY:
        Area = 0.329127 mm^2
        Peak Dynamic = 0.138314 W
        Subthreshold Leakage = 0.00112172 W
        Gate Leakage = 0.0042392 W
        Runtime Dynamic = 0.0377982 W

*****************************************************************************************
BUSES
      Area = 0.0111415 mm^2
      Peak Dynamic = 0.00641805 W
      Subthreshold Leakage = 0.000121299 W
      Gate Leakage = 0.000169423 W
      Runtime Dynamic = 0.0380174 W

      Bus: 
        Area = 0.0111415 mm^2
        Peak Dynamic = 0.00641805 W
        Subthreshold Leakage = 0.000121299 W
        Gate Leakage = 0.000169423 W
        Runtime Dynamic = 0.0380174 W

*****************************************************************************************
