
---------- Begin Simulation Statistics ----------
simSeconds                                  16.448378                       # Number of seconds simulated (Second)
simTicks                                 16448377846000                       # Number of ticks simulated (Tick)
finalTick                                16448377846000                       # Number of ticks from beginning of simulation (restored from checkpoints and never reset) (Tick)
simFreq                                  1000000000000                       # The number of ticks per simulated second ((Tick/Second))
hostSeconds                                  12924.34                       # Real time elapsed on the host (Second)
hostTickRate                               1272666977                       # The number of ticks simulated per host second (ticks/s) ((Tick/Second))
hostMemory                                    1250380                       # Number of bytes of host memory used (Byte)
simInsts                                   1812108073                       # Number of instructions simulated (Count)
simOps                                     1952149741                       # Number of ops (including micro ops) simulated (Count)
hostInstRate                                   140209                       # Simulator instruction rate (inst/s) ((Count/Second))
hostOpRate                                     151044                       # Simulator op (including micro ops) rate (op/s) ((Count/Second))
system.clk_domain.clock                          1000                       # Clock period in ticks (Tick)
system.clk_domain.voltage_domain.voltage            1                       # Voltage in Volts (Volt)
system.cpu.numCycles                      16448377846                       # Number of cpu cycles simulated (Cycle)
system.cpu.cpi                               9.076930                       # CPI: cycles per instruction (core level) ((Cycle/Count))
system.cpu.ipc                               0.110169                       # IPC: instructions per cycle (core level) ((Count/Cycle))
system.cpu.numWorkItemsStarted                      0                       # Number of work items this cpu started (Count)
system.cpu.numWorkItemsCompleted                    0                       # Number of work items this cpu completed (Count)
system.cpu.issuedInstType_0::No_OpClass             0      0.00%      0.00% # Number of instructions issued per FU type, per thread (Count)
system.cpu.issuedInstType_0::IntAlu        1042819120     53.38%     53.38% # Number of instructions issued per FU type, per thread (Count)
system.cpu.issuedInstType_0::IntMult              130      0.00%     53.38% # Number of instructions issued per FU type, per thread (Count)
system.cpu.issuedInstType_0::IntDiv                 3      0.00%     53.38% # Number of instructions issued per FU type, per thread (Count)
system.cpu.issuedInstType_0::FloatAdd         1070413      0.05%     53.43% # Number of instructions issued per FU type, per thread (Count)
system.cpu.issuedInstType_0::FloatCmp          365008      0.02%     53.45% # Number of instructions issued per FU type, per thread (Count)
system.cpu.issuedInstType_0::FloatCvt          440410      0.02%     53.47% # Number of instructions issued per FU type, per thread (Count)
system.cpu.issuedInstType_0::FloatMult         970408      0.05%     53.52% # Number of instructions issued per FU type, per thread (Count)
system.cpu.issuedInstType_0::FloatMultAcc    257405005     13.17%     66.70% # Number of instructions issued per FU type, per thread (Count)
system.cpu.issuedInstType_0::FloatDiv          185410      0.01%     66.71% # Number of instructions issued per FU type, per thread (Count)
system.cpu.issuedInstType_0::FloatMisc         627514      0.03%     66.74% # Number of instructions issued per FU type, per thread (Count)
system.cpu.issuedInstType_0::FloatSqrt              0      0.00%     66.74% # Number of instructions issued per FU type, per thread (Count)
system.cpu.issuedInstType_0::SimdAdd                0      0.00%     66.74% # Number of instructions issued per FU type, per thread (Count)
system.cpu.issuedInstType_0::SimdAddAcc             0      0.00%     66.74% # Number of instructions issued per FU type, per thread (Count)
system.cpu.issuedInstType_0::SimdAlu                5      0.00%     66.74% # Number of instructions issued per FU type, per thread (Count)
system.cpu.issuedInstType_0::SimdCmp                6      0.00%     66.74% # Number of instructions issued per FU type, per thread (Count)
system.cpu.issuedInstType_0::SimdCvt                0      0.00%     66.74% # Number of instructions issued per FU type, per thread (Count)
system.cpu.issuedInstType_0::SimdMisc          175044      0.01%     66.75% # Number of instructions issued per FU type, per thread (Count)
system.cpu.issuedInstType_0::SimdMult               0      0.00%     66.75% # Number of instructions issued per FU type, per thread (Count)
system.cpu.issuedInstType_0::SimdMultAcc            0      0.00%     66.75% # Number of instructions issued per FU type, per thread (Count)
system.cpu.issuedInstType_0::SimdMatMultAcc            0      0.00%     66.75% # Number of instructions issued per FU type, per thread (Count)
system.cpu.issuedInstType_0::SimdShift              1      0.00%     66.75% # Number of instructions issued per FU type, per thread (Count)
system.cpu.issuedInstType_0::SimdShiftAcc            0      0.00%     66.75% # Number of instructions issued per FU type, per thread (Count)
system.cpu.issuedInstType_0::SimdDiv                0      0.00%     66.75% # Number of instructions issued per FU type, per thread (Count)
system.cpu.issuedInstType_0::SimdSqrt               0      0.00%     66.75% # Number of instructions issued per FU type, per thread (Count)
system.cpu.issuedInstType_0::SimdFloatAdd        25450      0.00%     66.75% # Number of instructions issued per FU type, per thread (Count)
system.cpu.issuedInstType_0::SimdFloatAlu            0      0.00%     66.75% # Number of instructions issued per FU type, per thread (Count)
system.cpu.issuedInstType_0::SimdFloatCmp            0      0.00%     66.75% # Number of instructions issued per FU type, per thread (Count)
system.cpu.issuedInstType_0::SimdFloatCvt            0      0.00%     66.75% # Number of instructions issued per FU type, per thread (Count)
system.cpu.issuedInstType_0::SimdFloatDiv        50451      0.00%     66.75% # Number of instructions issued per FU type, per thread (Count)
system.cpu.issuedInstType_0::SimdFloatMisc            0      0.00%     66.75% # Number of instructions issued per FU type, per thread (Count)
system.cpu.issuedInstType_0::SimdFloatMult        25457      0.00%     66.75% # Number of instructions issued per FU type, per thread (Count)
system.cpu.issuedInstType_0::SimdFloatMultAcc            0      0.00%     66.75% # Number of instructions issued per FU type, per thread (Count)
system.cpu.issuedInstType_0::SimdFloatMatMultAcc            0      0.00%     66.75% # Number of instructions issued per FU type, per thread (Count)
system.cpu.issuedInstType_0::SimdFloatSqrt            0      0.00%     66.75% # Number of instructions issued per FU type, per thread (Count)
system.cpu.issuedInstType_0::SimdReduceAdd            0      0.00%     66.75% # Number of instructions issued per FU type, per thread (Count)
system.cpu.issuedInstType_0::SimdReduceAlu            0      0.00%     66.75% # Number of instructions issued per FU type, per thread (Count)
system.cpu.issuedInstType_0::SimdReduceCmp            0      0.00%     66.75% # Number of instructions issued per FU type, per thread (Count)
system.cpu.issuedInstType_0::SimdFloatReduceAdd            0      0.00%     66.75% # Number of instructions issued per FU type, per thread (Count)
system.cpu.issuedInstType_0::SimdFloatReduceCmp            0      0.00%     66.75% # Number of instructions issued per FU type, per thread (Count)
system.cpu.issuedInstType_0::SimdAes                0      0.00%     66.75% # Number of instructions issued per FU type, per thread (Count)
system.cpu.issuedInstType_0::SimdAesMix             0      0.00%     66.75% # Number of instructions issued per FU type, per thread (Count)
system.cpu.issuedInstType_0::SimdSha1Hash            0      0.00%     66.75% # Number of instructions issued per FU type, per thread (Count)
system.cpu.issuedInstType_0::SimdSha1Hash2            0      0.00%     66.75% # Number of instructions issued per FU type, per thread (Count)
system.cpu.issuedInstType_0::SimdSha256Hash            0      0.00%     66.75% # Number of instructions issued per FU type, per thread (Count)
system.cpu.issuedInstType_0::SimdSha256Hash2            0      0.00%     66.75% # Number of instructions issued per FU type, per thread (Count)
system.cpu.issuedInstType_0::SimdShaSigma2            0      0.00%     66.75% # Number of instructions issued per FU type, per thread (Count)
system.cpu.issuedInstType_0::SimdShaSigma3            0      0.00%     66.75% # Number of instructions issued per FU type, per thread (Count)
system.cpu.issuedInstType_0::SimdSha3               0      0.00%     66.75% # Number of instructions issued per FU type, per thread (Count)
system.cpu.issuedInstType_0::SimdSm4e               0      0.00%     66.75% # Number of instructions issued per FU type, per thread (Count)
system.cpu.issuedInstType_0::SimdCrc                0      0.00%     66.75% # Number of instructions issued per FU type, per thread (Count)
system.cpu.issuedInstType_0::SimdPredAlu            0      0.00%     66.75% # Number of instructions issued per FU type, per thread (Count)
system.cpu.issuedInstType_0::SimdDotProd            0      0.00%     66.75% # Number of instructions issued per FU type, per thread (Count)
system.cpu.issuedInstType_0::Matrix                 0      0.00%     66.75% # Number of instructions issued per FU type, per thread (Count)
system.cpu.issuedInstType_0::MatrixMov              0      0.00%     66.75% # Number of instructions issued per FU type, per thread (Count)
system.cpu.issuedInstType_0::MatrixOP               0      0.00%     66.75% # Number of instructions issued per FU type, per thread (Count)
system.cpu.issuedInstType_0::MemRead        517064975     26.47%     93.22% # Number of instructions issued per FU type, per thread (Count)
system.cpu.issuedInstType_0::MemWrite       132526153      6.78%    100.00% # Number of instructions issued per FU type, per thread (Count)
system.cpu.issuedInstType_0::FloatMemRead            0      0.00%    100.00% # Number of instructions issued per FU type, per thread (Count)
system.cpu.issuedInstType_0::FloatMemWrite            0      0.00%    100.00% # Number of instructions issued per FU type, per thread (Count)
system.cpu.issuedInstType_0::InstPrefetch            0      0.00%    100.00% # Number of instructions issued per FU type, per thread (Count)
system.cpu.issuedInstType_0::SimdUnitStrideLoad            0      0.00%    100.00% # Number of instructions issued per FU type, per thread (Count)
system.cpu.issuedInstType_0::SimdUnitStrideStore            0      0.00%    100.00% # Number of instructions issued per FU type, per thread (Count)
system.cpu.issuedInstType_0::SimdUnitStrideMaskLoad            0      0.00%    100.00% # Number of instructions issued per FU type, per thread (Count)
system.cpu.issuedInstType_0::SimdUnitStrideMaskStore            0      0.00%    100.00% # Number of instructions issued per FU type, per thread (Count)
system.cpu.issuedInstType_0::SimdStridedLoad            0      0.00%    100.00% # Number of instructions issued per FU type, per thread (Count)
system.cpu.issuedInstType_0::SimdStridedStore            0      0.00%    100.00% # Number of instructions issued per FU type, per thread (Count)
system.cpu.issuedInstType_0::SimdIndexedLoad            0      0.00%    100.00% # Number of instructions issued per FU type, per thread (Count)
system.cpu.issuedInstType_0::SimdIndexedStore            0      0.00%    100.00% # Number of instructions issued per FU type, per thread (Count)
system.cpu.issuedInstType_0::SimdWholeRegisterLoad            0      0.00%    100.00% # Number of instructions issued per FU type, per thread (Count)
system.cpu.issuedInstType_0::SimdWholeRegisterStore            0      0.00%    100.00% # Number of instructions issued per FU type, per thread (Count)
system.cpu.issuedInstType_0::SimdUnitStrideFaultOnlyFirstLoad            0      0.00%    100.00% # Number of instructions issued per FU type, per thread (Count)
system.cpu.issuedInstType_0::SimdUnitStrideSegmentedLoad            0      0.00%    100.00% # Number of instructions issued per FU type, per thread (Count)
system.cpu.issuedInstType_0::SimdUnitStrideSegmentedStore            0      0.00%    100.00% # Number of instructions issued per FU type, per thread (Count)
system.cpu.issuedInstType_0::SimdUnitStrideSegmentedFaultOnlyFirstLoad            0      0.00%    100.00% # Number of instructions issued per FU type, per thread (Count)
system.cpu.issuedInstType_0::SimdStrideSegmentedLoad            0      0.00%    100.00% # Number of instructions issued per FU type, per thread (Count)
system.cpu.issuedInstType_0::SimdStrideSegmentedStore            0      0.00%    100.00% # Number of instructions issued per FU type, per thread (Count)
system.cpu.issuedInstType_0::SimdExt                0      0.00%    100.00% # Number of instructions issued per FU type, per thread (Count)
system.cpu.issuedInstType_0::SimdFloatExt            0      0.00%    100.00% # Number of instructions issued per FU type, per thread (Count)
system.cpu.issuedInstType_0::SimdConfig             0      0.00%    100.00% # Number of instructions issued per FU type, per thread (Count)
system.cpu.issuedInstType_0::SimdBf16Add            0      0.00%    100.00% # Number of instructions issued per FU type, per thread (Count)
system.cpu.issuedInstType_0::SimdBf16Cmp            0      0.00%    100.00% # Number of instructions issued per FU type, per thread (Count)
system.cpu.issuedInstType_0::SimdBf16Cvt            0      0.00%    100.00% # Number of instructions issued per FU type, per thread (Count)
system.cpu.issuedInstType_0::SimdBf16DotProd            0      0.00%    100.00% # Number of instructions issued per FU type, per thread (Count)
system.cpu.issuedInstType_0::SimdBf16MatMultAcc            0      0.00%    100.00% # Number of instructions issued per FU type, per thread (Count)
system.cpu.issuedInstType_0::SimdBf16Mult            0      0.00%    100.00% # Number of instructions issued per FU type, per thread (Count)
system.cpu.issuedInstType_0::SimdBf16MultAcc            0      0.00%    100.00% # Number of instructions issued per FU type, per thread (Count)
system.cpu.issuedInstType_0::Bf16Cvt                0      0.00%    100.00% # Number of instructions issued per FU type, per thread (Count)
system.cpu.issuedInstType_0::System                38      0.00%    100.00% # Number of instructions issued per FU type, per thread (Count)
system.cpu.issuedInstType_0::total         1953751001                       # Number of instructions issued per FU type, per thread (Count)
system.cpu.branchPred.lookups_0::NoBranch           24      0.00%      0.00% # Number of BP lookups (Count)
system.cpu.branchPred.lookups_0::Return        367550      0.14%      0.14% # Number of BP lookups (Count)
system.cpu.branchPred.lookups_0::CallDirect       366120      0.14%      0.28% # Number of BP lookups (Count)
system.cpu.branchPred.lookups_0::CallIndirect           26      0.00%      0.28% # Number of BP lookups (Count)
system.cpu.branchPred.lookups_0::DirectCond    260224011     99.64%     99.92% # Number of BP lookups (Count)
system.cpu.branchPred.lookups_0::DirectUncond       195614      0.07%    100.00% # Number of BP lookups (Count)
system.cpu.branchPred.lookups_0::IndirectCond            0      0.00%    100.00% # Number of BP lookups (Count)
system.cpu.branchPred.lookups_0::IndirectUncond         5058      0.00%    100.00% # Number of BP lookups (Count)
system.cpu.branchPred.lookups_0::total      261158403                       # Number of BP lookups (Count)
system.cpu.branchPred.squashes_0::NoBranch            9      0.00%      0.00% # Number of branches that got squashed (completely removed) as an earlier branch was mispredicted. (Count)
system.cpu.branchPred.squashes_0::Return         8439      0.77%      0.77% # Number of branches that got squashed (completely removed) as an earlier branch was mispredicted. (Count)
system.cpu.branchPred.squashes_0::CallDirect         7013      0.64%      1.41% # Number of branches that got squashed (completely removed) as an earlier branch was mispredicted. (Count)
system.cpu.branchPred.squashes_0::CallIndirect           15      0.00%      1.41% # Number of branches that got squashed (completely removed) as an earlier branch was mispredicted. (Count)
system.cpu.branchPred.squashes_0::DirectCond      1063585     97.20%     98.61% # Number of branches that got squashed (completely removed) as an earlier branch was mispredicted. (Count)
system.cpu.branchPred.squashes_0::DirectUncond        15173      1.39%    100.00% # Number of branches that got squashed (completely removed) as an earlier branch was mispredicted. (Count)
system.cpu.branchPred.squashes_0::IndirectCond            0      0.00%    100.00% # Number of branches that got squashed (completely removed) as an earlier branch was mispredicted. (Count)
system.cpu.branchPred.squashes_0::IndirectUncond           32      0.00%    100.00% # Number of branches that got squashed (completely removed) as an earlier branch was mispredicted. (Count)
system.cpu.branchPred.squashes_0::total       1094266                       # Number of branches that got squashed (completely removed) as an earlier branch was mispredicted. (Count)
system.cpu.branchPred.corrected_0::NoBranch           12      0.00%      0.00% # Number of branches that got corrected but not yet commited. Branches get corrected by decode or after execute. Also a branch misprediction can be detected out-of-order. Therefore, a corrected branch might not end up beeing committed in case an even earlier branch was mispredicted (Count)
system.cpu.branchPred.corrected_0::Return            9      0.00%      0.00% # Number of branches that got corrected but not yet commited. Branches get corrected by decode or after execute. Also a branch misprediction can be detected out-of-order. Therefore, a corrected branch might not end up beeing committed in case an even earlier branch was mispredicted (Count)
system.cpu.branchPred.corrected_0::CallDirect          145      0.03%      0.04% # Number of branches that got corrected but not yet commited. Branches get corrected by decode or after execute. Also a branch misprediction can be detected out-of-order. Therefore, a corrected branch might not end up beeing committed in case an even earlier branch was mispredicted (Count)
system.cpu.branchPred.corrected_0::CallIndirect           11      0.00%      0.04% # Number of branches that got corrected but not yet commited. Branches get corrected by decode or after execute. Also a branch misprediction can be detected out-of-order. Therefore, a corrected branch might not end up beeing committed in case an even earlier branch was mispredicted (Count)
system.cpu.branchPred.corrected_0::DirectCond       472094     99.95%     99.98% # Number of branches that got corrected but not yet commited. Branches get corrected by decode or after execute. Also a branch misprediction can be detected out-of-order. Therefore, a corrected branch might not end up beeing committed in case an even earlier branch was mispredicted (Count)
system.cpu.branchPred.corrected_0::DirectUncond           63      0.01%    100.00% # Number of branches that got corrected but not yet commited. Branches get corrected by decode or after execute. Also a branch misprediction can be detected out-of-order. Therefore, a corrected branch might not end up beeing committed in case an even earlier branch was mispredicted (Count)
system.cpu.branchPred.corrected_0::IndirectCond            0      0.00%    100.00% # Number of branches that got corrected but not yet commited. Branches get corrected by decode or after execute. Also a branch misprediction can be detected out-of-order. Therefore, a corrected branch might not end up beeing committed in case an even earlier branch was mispredicted (Count)
system.cpu.branchPred.corrected_0::IndirectUncond           18      0.00%    100.00% # Number of branches that got corrected but not yet commited. Branches get corrected by decode or after execute. Also a branch misprediction can be detected out-of-order. Therefore, a corrected branch might not end up beeing committed in case an even earlier branch was mispredicted (Count)
system.cpu.branchPred.corrected_0::total       472352                       # Number of branches that got corrected but not yet commited. Branches get corrected by decode or after execute. Also a branch misprediction can be detected out-of-order. Therefore, a corrected branch might not end up beeing committed in case an even earlier branch was mispredicted (Count)
system.cpu.branchPred.earlyResteers_0::NoBranch            0                       # Number of branches that got redirected after decode. (Count)
system.cpu.branchPred.earlyResteers_0::Return            0                       # Number of branches that got redirected after decode. (Count)
system.cpu.branchPred.earlyResteers_0::CallDirect            0                       # Number of branches that got redirected after decode. (Count)
system.cpu.branchPred.earlyResteers_0::CallIndirect            0                       # Number of branches that got redirected after decode. (Count)
system.cpu.branchPred.earlyResteers_0::DirectCond            0                       # Number of branches that got redirected after decode. (Count)
system.cpu.branchPred.earlyResteers_0::DirectUncond            0                       # Number of branches that got redirected after decode. (Count)
system.cpu.branchPred.earlyResteers_0::IndirectCond            0                       # Number of branches that got redirected after decode. (Count)
system.cpu.branchPred.earlyResteers_0::IndirectUncond            0                       # Number of branches that got redirected after decode. (Count)
system.cpu.branchPred.earlyResteers_0::total            0                       # Number of branches that got redirected after decode. (Count)
system.cpu.branchPred.committed_0::NoBranch           13      0.00%      0.00% # Number of branches finally committed  (Count)
system.cpu.branchPred.committed_0::Return       359111      0.14%      0.14% # Number of branches finally committed  (Count)
system.cpu.branchPred.committed_0::CallDirect       359107      0.14%      0.28% # Number of branches finally committed  (Count)
system.cpu.branchPred.committed_0::CallIndirect           11      0.00%      0.28% # Number of branches finally committed  (Count)
system.cpu.branchPred.committed_0::DirectCond    259160424     99.65%     99.93% # Number of branches finally committed  (Count)
system.cpu.branchPred.committed_0::DirectUncond       180441      0.07%    100.00% # Number of branches finally committed  (Count)
system.cpu.branchPred.committed_0::IndirectCond            0      0.00%    100.00% # Number of branches finally committed  (Count)
system.cpu.branchPred.committed_0::IndirectUncond         5026      0.00%    100.00% # Number of branches finally committed  (Count)
system.cpu.branchPred.committed_0::total    260064133                       # Number of branches finally committed  (Count)
system.cpu.branchPred.mispredicted_0::NoBranch           12      0.00%      0.00% # Number of committed branches that were mispredicted. (Count)
system.cpu.branchPred.mispredicted_0::Return            9      0.00%      0.00% # Number of committed branches that were mispredicted. (Count)
system.cpu.branchPred.mispredicted_0::CallDirect          145      0.03%      0.04% # Number of committed branches that were mispredicted. (Count)
system.cpu.branchPred.mispredicted_0::CallIndirect           11      0.00%      0.04% # Number of committed branches that were mispredicted. (Count)
system.cpu.branchPred.mispredicted_0::DirectCond       472094     99.95%     99.98% # Number of committed branches that were mispredicted. (Count)
system.cpu.branchPred.mispredicted_0::DirectUncond           63      0.01%    100.00% # Number of committed branches that were mispredicted. (Count)
system.cpu.branchPred.mispredicted_0::IndirectCond            0      0.00%    100.00% # Number of committed branches that were mispredicted. (Count)
system.cpu.branchPred.mispredicted_0::IndirectUncond           18      0.00%    100.00% # Number of committed branches that were mispredicted. (Count)
system.cpu.branchPred.mispredicted_0::total       472352                       # Number of committed branches that were mispredicted. (Count)
system.cpu.branchPred.mispredictDueToPredictor_0::NoBranch            2      0.00%      0.00% # Number of committed branches that were mispredicted by the predictor. (Count)
system.cpu.branchPred.mispredictDueToPredictor_0::Return            0      0.00%      0.00% # Number of committed branches that were mispredicted by the predictor. (Count)
system.cpu.branchPred.mispredictDueToPredictor_0::CallDirect            0      0.00%      0.00% # Number of committed branches that were mispredicted by the predictor. (Count)
system.cpu.branchPred.mispredictDueToPredictor_0::CallIndirect            0      0.00%      0.00% # Number of committed branches that were mispredicted by the predictor. (Count)
system.cpu.branchPred.mispredictDueToPredictor_0::DirectCond       471892    100.00%    100.00% # Number of committed branches that were mispredicted by the predictor. (Count)
system.cpu.branchPred.mispredictDueToPredictor_0::DirectUncond            0      0.00%    100.00% # Number of committed branches that were mispredicted by the predictor. (Count)
system.cpu.branchPred.mispredictDueToPredictor_0::IndirectCond            0      0.00%    100.00% # Number of committed branches that were mispredicted by the predictor. (Count)
system.cpu.branchPred.mispredictDueToPredictor_0::IndirectUncond            0      0.00%    100.00% # Number of committed branches that were mispredicted by the predictor. (Count)
system.cpu.branchPred.mispredictDueToPredictor_0::total       471894                       # Number of committed branches that were mispredicted by the predictor. (Count)
system.cpu.branchPred.mispredictDueToBTBMiss_0::NoBranch           10      2.18%      2.18% # Number of committed branches that were mispredicted because of a BTB miss. (Count)
system.cpu.branchPred.mispredictDueToBTBMiss_0::Return            9      1.97%      4.15% # Number of committed branches that were mispredicted because of a BTB miss. (Count)
system.cpu.branchPred.mispredictDueToBTBMiss_0::CallDirect          145     31.66%     35.81% # Number of committed branches that were mispredicted because of a BTB miss. (Count)
system.cpu.branchPred.mispredictDueToBTBMiss_0::CallIndirect           11      2.40%     38.21% # Number of committed branches that were mispredicted because of a BTB miss. (Count)
system.cpu.branchPred.mispredictDueToBTBMiss_0::DirectCond          202     44.10%     82.31% # Number of committed branches that were mispredicted because of a BTB miss. (Count)
system.cpu.branchPred.mispredictDueToBTBMiss_0::DirectUncond           63     13.76%     96.07% # Number of committed branches that were mispredicted because of a BTB miss. (Count)
system.cpu.branchPred.mispredictDueToBTBMiss_0::IndirectCond            0      0.00%     96.07% # Number of committed branches that were mispredicted because of a BTB miss. (Count)
system.cpu.branchPred.mispredictDueToBTBMiss_0::IndirectUncond           18      3.93%    100.00% # Number of committed branches that were mispredicted because of a BTB miss. (Count)
system.cpu.branchPred.mispredictDueToBTBMiss_0::total          458                       # Number of committed branches that were mispredicted because of a BTB miss. (Count)
system.cpu.branchPred.targetProvider_0::NoTarget      2194677      0.84%      0.84% # The component providing the target for taken branches (Count)
system.cpu.branchPred.targetProvider_0::BTB    258591162     99.02%     99.86% # The component providing the target for taken branches (Count)
system.cpu.branchPred.targetProvider_0::RAS       367550      0.14%    100.00% # The component providing the target for taken branches (Count)
system.cpu.branchPred.targetProvider_0::Indirect         5014      0.00%    100.00% # The component providing the target for taken branches (Count)
system.cpu.branchPred.targetProvider_0::total    261158403                       # The component providing the target for taken branches (Count)
system.cpu.branchPred.targetWrong_0::NoBranch        11436      2.42%      2.42% # Number of branches where the target was incorrect or not available at prediction time. (Count)
system.cpu.branchPred.targetWrong_0::Return       460895     97.58%    100.00% # Number of branches where the target was incorrect or not available at prediction time. (Count)
system.cpu.branchPred.targetWrong_0::CallDirect            9      0.00%    100.00% # Number of branches where the target was incorrect or not available at prediction time. (Count)
system.cpu.branchPred.targetWrong_0::CallIndirect            0      0.00%    100.00% # Number of branches where the target was incorrect or not available at prediction time. (Count)
system.cpu.branchPred.targetWrong_0::DirectCond            0      0.00%    100.00% # Number of branches where the target was incorrect or not available at prediction time. (Count)
system.cpu.branchPred.targetWrong_0::DirectUncond            0      0.00%    100.00% # Number of branches where the target was incorrect or not available at prediction time. (Count)
system.cpu.branchPred.targetWrong_0::IndirectCond            0      0.00%    100.00% # Number of branches where the target was incorrect or not available at prediction time. (Count)
system.cpu.branchPred.targetWrong_0::IndirectUncond            0      0.00%    100.00% # Number of branches where the target was incorrect or not available at prediction time. (Count)
system.cpu.branchPred.targetWrong_0::total       472340                       # Number of branches where the target was incorrect or not available at prediction time. (Count)
system.cpu.branchPred.condPredicted         260224011                       # Number of conditional branches predicted (Count)
system.cpu.branchPred.condPredictedTaken    258030361                       # Number of conditional branches predicted as taken (Count)
system.cpu.branchPred.condIncorrect            472352                       # Number of conditional branches incorrect (Count)
system.cpu.branchPred.predTakenBTBMiss            273                       # Number of branches predicted taken but missed in BTB (Count)
system.cpu.branchPred.BTBLookups            261158403                       # Number of BTB lookups (Count)
system.cpu.branchPred.BTBUpdates                11419                       # Number of BTB updates (Count)
system.cpu.branchPred.BTBHits               260421154                       # Number of BTB hits (Count)
system.cpu.branchPred.BTBHitRatio            0.997177                       # BTB Hit Ratio (Ratio)
system.cpu.branchPred.BTBMispredicted             420                       # Number BTB mispredictions. No target found or target wrong (Count)
system.cpu.branchPred.indirectLookups            5084                       # Number of indirect predictor lookups. (Count)
system.cpu.branchPred.indirectHits               5014                       # Number of indirect target hits. (Count)
system.cpu.branchPred.indirectMisses               70                       # Number of indirect misses. (Count)
system.cpu.branchPred.indirectMispredicted            0                       # Number of mispredicted indirect branches. (Count)
system.cpu.branchPred.btb.lookups::NoBranch           24      0.00%      0.00% # Number of BTB lookups (Count)
system.cpu.branchPred.btb.lookups::Return       367550      0.14%      0.14% # Number of BTB lookups (Count)
system.cpu.branchPred.btb.lookups::CallDirect       366120      0.14%      0.28% # Number of BTB lookups (Count)
system.cpu.branchPred.btb.lookups::CallIndirect           26      0.00%      0.28% # Number of BTB lookups (Count)
system.cpu.branchPred.btb.lookups::DirectCond    260224011     99.64%     99.92% # Number of BTB lookups (Count)
system.cpu.branchPred.btb.lookups::DirectUncond       195614      0.07%    100.00% # Number of BTB lookups (Count)
system.cpu.branchPred.btb.lookups::IndirectCond            0      0.00%    100.00% # Number of BTB lookups (Count)
system.cpu.branchPred.btb.lookups::IndirectUncond         5058      0.00%    100.00% # Number of BTB lookups (Count)
system.cpu.branchPred.btb.lookups::total    261158403                       # Number of BTB lookups (Count)
system.cpu.branchPred.btb.misses::NoBranch           21      0.00%      0.00% # Number of BTB misses (Count)
system.cpu.branchPred.btb.misses::Return       367550     49.85%     49.86% # Number of BTB misses (Count)
system.cpu.branchPred.btb.misses::CallDirect          427      0.06%     49.92% # Number of BTB misses (Count)
system.cpu.branchPred.btb.misses::CallIndirect           26      0.00%     49.92% # Number of BTB misses (Count)
system.cpu.branchPred.btb.misses::DirectCond       363974     49.37%     99.29% # Number of BTB misses (Count)
system.cpu.branchPred.btb.misses::DirectUncond          193      0.03%     99.31% # Number of BTB misses (Count)
system.cpu.branchPred.btb.misses::IndirectCond            0      0.00%     99.31% # Number of BTB misses (Count)
system.cpu.branchPred.btb.misses::IndirectUncond         5058      0.69%    100.00% # Number of BTB misses (Count)
system.cpu.branchPred.btb.misses::total        737249                       # Number of BTB misses (Count)
system.cpu.branchPred.btb.updates::NoBranch           12      0.11%      0.11% # Number of BTB updates (Count)
system.cpu.branchPred.btb.updates::Return            0      0.00%      0.11% # Number of BTB updates (Count)
system.cpu.branchPred.btb.updates::CallDirect          145      1.27%      1.37% # Number of BTB updates (Count)
system.cpu.branchPred.btb.updates::CallIndirect            0      0.00%      1.37% # Number of BTB updates (Count)
system.cpu.branchPred.btb.updates::DirectCond        11199     98.07%     99.45% # Number of BTB updates (Count)
system.cpu.branchPred.btb.updates::DirectUncond           63      0.55%    100.00% # Number of BTB updates (Count)
system.cpu.branchPred.btb.updates::IndirectCond            0      0.00%    100.00% # Number of BTB updates (Count)
system.cpu.branchPred.btb.updates::IndirectUncond            0      0.00%    100.00% # Number of BTB updates (Count)
system.cpu.branchPred.btb.updates::total        11419                       # Number of BTB updates (Count)
system.cpu.branchPred.btb.mispredict::NoBranch           12      0.11%      0.11% # Number of BTB mispredictions. No target found or target wrong. (Count)
system.cpu.branchPred.btb.mispredict::Return            0      0.00%      0.11% # Number of BTB mispredictions. No target found or target wrong. (Count)
system.cpu.branchPred.btb.mispredict::CallDirect          145      1.27%      1.37% # Number of BTB mispredictions. No target found or target wrong. (Count)
system.cpu.branchPred.btb.mispredict::CallIndirect            0      0.00%      1.37% # Number of BTB mispredictions. No target found or target wrong. (Count)
system.cpu.branchPred.btb.mispredict::DirectCond        11199     98.07%     99.45% # Number of BTB mispredictions. No target found or target wrong. (Count)
system.cpu.branchPred.btb.mispredict::DirectUncond           63      0.55%    100.00% # Number of BTB mispredictions. No target found or target wrong. (Count)
system.cpu.branchPred.btb.mispredict::IndirectCond            0      0.00%    100.00% # Number of BTB mispredictions. No target found or target wrong. (Count)
system.cpu.branchPred.btb.mispredict::IndirectUncond            0      0.00%    100.00% # Number of BTB mispredictions. No target found or target wrong. (Count)
system.cpu.branchPred.btb.mispredict::total        11419                       # Number of BTB mispredictions. No target found or target wrong. (Count)
system.cpu.branchPred.btb.power_state.pwrStateResidencyTicks::UNDEFINED 16448377846000                       # Cumulative time (in ticks) in various power states (Tick)
system.cpu.branchPred.indirectBranchPred.lookups         5084                       # Number of lookups (Count)
system.cpu.branchPred.indirectBranchPred.hits         5014                       # Number of hits of a tag (Count)
system.cpu.branchPred.indirectBranchPred.misses           70                       # Number of misses (Count)
system.cpu.branchPred.indirectBranchPred.targetRecords           29                       # Number of targets that where recorded/installed in the cache (Count)
system.cpu.branchPred.indirectBranchPred.indirectRecords         5113                       # Number of indirect branches/calls recorded in the indirect hist (Count)
system.cpu.branchPred.indirectBranchPred.speculativeOverflows            4                       # Number of times more than the allowed capacity for speculative branches/calls where in flight and destroy the path history (Count)
system.cpu.branchPred.ras.pushes               374585                       # Number of times a PC was pushed onto the RAS (Count)
system.cpu.branchPred.ras.pops                 374578                       # Number of times a PC was poped from the RAS (Count)
system.cpu.branchPred.ras.squashes              15467                       # Number of times the stack operation was squashed due to wrong speculation. (Count)
system.cpu.branchPred.ras.used                 359111                       # Number of times the RAS is the provider (Count)
system.cpu.branchPred.ras.correct              359102                       # Number of times the RAS is the provider and the prediction is correct (Count)
system.cpu.branchPred.ras.incorrect                 9                       # Number of times the RAS is the provider and the prediction is wrong (Count)
system.cpu.commitStats0.numInsts           1812108073                       # Number of instructions committed (thread level) (Count)
system.cpu.commitStats0.numOps             1952149741                       # Number of ops (including micro ops) committed (thread level) (Count)
system.cpu.commitStats0.numInstsNotNOP     1811883000                       # Number of instructions committed excluding NOPs or prefetches (Count)
system.cpu.commitStats0.numOpsNotNOP       1951924668                       # Number of Ops (including micro ops) Simulated (Count)
system.cpu.commitStats0.numUserInsts       1812108073                       # Numbrer of instructions committed in user mode (Count)
system.cpu.commitStats0.numUserOps         1952149741                       # Number of ops committed in user mode (Count)
system.cpu.commitStats0.ratioUserInsts              1                       # Ratio of instructions committed in user mode (Ratio)
system.cpu.commitStats0.ratioUserOps                1                       # Ratio of ops committed in user mode (Ratio)
system.cpu.commitStats0.cpi                  9.076930                       # CPI: cycles per instruction (thread level) ((Cycle/Count))
system.cpu.commitStats0.ipc                  0.110169                       # IPC: instructions per cycle (thread level) ((Count/Cycle))
system.cpu.commitStats0.numMemRefs          648895628                       # Number of memory references committed (Count)
system.cpu.commitStats0.numFpInsts                  0                       # Number of float instructions (Count)
system.cpu.commitStats0.numIntInsts        1432447780                       # Number of integer instructions (Count)
system.cpu.commitStats0.numLoadInsts        516374583                       # Number of load instructions (Count)
system.cpu.commitStats0.numStoreInsts       132521045                       # Number of store instructions (Count)
system.cpu.commitStats0.numVecInsts         907868900                       # Number of vector instructions (Count)
system.cpu.commitStats0.committedInstType::No_OpClass        50846      0.00%      0.00% # Class of committed instruction. (Count)
system.cpu.commitStats0.committedInstType::IntAlu   1042137580     53.38%     53.39% # Class of committed instruction. (Count)
system.cpu.commitStats0.committedInstType::IntMult          129      0.00%     53.39% # Class of committed instruction. (Count)
system.cpu.commitStats0.committedInstType::IntDiv            3      0.00%     53.39% # Class of committed instruction. (Count)
system.cpu.commitStats0.committedInstType::FloatAdd      1055408      0.05%     53.44% # Class of committed instruction. (Count)
system.cpu.commitStats0.committedInstType::FloatCmp       365000      0.02%     53.46% # Class of committed instruction. (Count)
system.cpu.commitStats0.committedInstType::FloatCvt       440408      0.02%     53.48% # Class of committed instruction. (Count)
system.cpu.commitStats0.committedInstType::FloatMult       970408      0.05%     53.53% # Class of committed instruction. (Count)
system.cpu.commitStats0.committedInstType::FloatMultAcc    257155000     13.17%     66.70% # Class of committed instruction. (Count)
system.cpu.commitStats0.committedInstType::FloatDiv       185408      0.01%     66.71% # Class of committed instruction. (Count)
system.cpu.commitStats0.committedInstType::FloatMisc       622508      0.03%     66.75% # Class of committed instruction. (Count)
system.cpu.commitStats0.committedInstType::FloatSqrt            0      0.00%     66.75% # Class of committed instruction. (Count)
system.cpu.commitStats0.committedInstType::SimdAdd            0      0.00%     66.75% # Class of committed instruction. (Count)
system.cpu.commitStats0.committedInstType::SimdAddAcc            0      0.00%     66.75% # Class of committed instruction. (Count)
system.cpu.commitStats0.committedInstType::SimdAlu            4      0.00%     66.75% # Class of committed instruction. (Count)
system.cpu.commitStats0.committedInstType::SimdCmp            6      0.00%     66.75% # Class of committed instruction. (Count)
system.cpu.commitStats0.committedInstType::SimdCvt            0      0.00%     66.75% # Class of committed instruction. (Count)
system.cpu.commitStats0.committedInstType::SimdMisc       170022      0.01%     66.75% # Class of committed instruction. (Count)
system.cpu.commitStats0.committedInstType::SimdMult            0      0.00%     66.75% # Class of committed instruction. (Count)
system.cpu.commitStats0.committedInstType::SimdMultAcc            0      0.00%     66.75% # Class of committed instruction. (Count)
system.cpu.commitStats0.committedInstType::SimdMatMultAcc            0      0.00%     66.75% # Class of committed instruction. (Count)
system.cpu.commitStats0.committedInstType::SimdShift            1      0.00%     66.75% # Class of committed instruction. (Count)
system.cpu.commitStats0.committedInstType::SimdShiftAcc            0      0.00%     66.75% # Class of committed instruction. (Count)
system.cpu.commitStats0.committedInstType::SimdDiv            0      0.00%     66.75% # Class of committed instruction. (Count)
system.cpu.commitStats0.committedInstType::SimdSqrt            0      0.00%     66.75% # Class of committed instruction. (Count)
system.cpu.commitStats0.committedInstType::SimdFloatAdd        25450      0.00%     66.76% # Class of committed instruction. (Count)
system.cpu.commitStats0.committedInstType::SimdFloatAlu            0      0.00%     66.76% # Class of committed instruction. (Count)
system.cpu.commitStats0.committedInstType::SimdFloatCmp            0      0.00%     66.76% # Class of committed instruction. (Count)
system.cpu.commitStats0.committedInstType::SimdFloatCvt            0      0.00%     66.76% # Class of committed instruction. (Count)
system.cpu.commitStats0.committedInstType::SimdFloatDiv        50450      0.00%     66.76% # Class of committed instruction. (Count)
system.cpu.commitStats0.committedInstType::SimdFloatMisc            0      0.00%     66.76% # Class of committed instruction. (Count)
system.cpu.commitStats0.committedInstType::SimdFloatMult        25450      0.00%     66.76% # Class of committed instruction. (Count)
system.cpu.commitStats0.committedInstType::SimdFloatMultAcc            0      0.00%     66.76% # Class of committed instruction. (Count)
system.cpu.commitStats0.committedInstType::SimdFloatMatMultAcc            0      0.00%     66.76% # Class of committed instruction. (Count)
system.cpu.commitStats0.committedInstType::SimdFloatSqrt            0      0.00%     66.76% # Class of committed instruction. (Count)
system.cpu.commitStats0.committedInstType::SimdReduceAdd            0      0.00%     66.76% # Class of committed instruction. (Count)
system.cpu.commitStats0.committedInstType::SimdReduceAlu            0      0.00%     66.76% # Class of committed instruction. (Count)
system.cpu.commitStats0.committedInstType::SimdReduceCmp            0      0.00%     66.76% # Class of committed instruction. (Count)
system.cpu.commitStats0.committedInstType::SimdFloatReduceAdd            0      0.00%     66.76% # Class of committed instruction. (Count)
system.cpu.commitStats0.committedInstType::SimdFloatReduceCmp            0      0.00%     66.76% # Class of committed instruction. (Count)
system.cpu.commitStats0.committedInstType::SimdAes            0      0.00%     66.76% # Class of committed instruction. (Count)
system.cpu.commitStats0.committedInstType::SimdAesMix            0      0.00%     66.76% # Class of committed instruction. (Count)
system.cpu.commitStats0.committedInstType::SimdSha1Hash            0      0.00%     66.76% # Class of committed instruction. (Count)
system.cpu.commitStats0.committedInstType::SimdSha1Hash2            0      0.00%     66.76% # Class of committed instruction. (Count)
system.cpu.commitStats0.committedInstType::SimdSha256Hash            0      0.00%     66.76% # Class of committed instruction. (Count)
system.cpu.commitStats0.committedInstType::SimdSha256Hash2            0      0.00%     66.76% # Class of committed instruction. (Count)
system.cpu.commitStats0.committedInstType::SimdShaSigma2            0      0.00%     66.76% # Class of committed instruction. (Count)
system.cpu.commitStats0.committedInstType::SimdShaSigma3            0      0.00%     66.76% # Class of committed instruction. (Count)
system.cpu.commitStats0.committedInstType::SimdSha3            0      0.00%     66.76% # Class of committed instruction. (Count)
system.cpu.commitStats0.committedInstType::SimdSm4e            0      0.00%     66.76% # Class of committed instruction. (Count)
system.cpu.commitStats0.committedInstType::SimdCrc            0      0.00%     66.76% # Class of committed instruction. (Count)
system.cpu.commitStats0.committedInstType::SimdPredAlu            0      0.00%     66.76% # Class of committed instruction. (Count)
system.cpu.commitStats0.committedInstType::SimdDotProd            0      0.00%     66.76% # Class of committed instruction. (Count)
system.cpu.commitStats0.committedInstType::Matrix            0      0.00%     66.76% # Class of committed instruction. (Count)
system.cpu.commitStats0.committedInstType::MatrixMov            0      0.00%     66.76% # Class of committed instruction. (Count)
system.cpu.commitStats0.committedInstType::MatrixOP            0      0.00%     66.76% # Class of committed instruction. (Count)
system.cpu.commitStats0.committedInstType::MemRead    516374583     26.45%     93.21% # Class of committed instruction. (Count)
system.cpu.commitStats0.committedInstType::MemWrite    132521045      6.79%    100.00% # Class of committed instruction. (Count)
system.cpu.commitStats0.committedInstType::FloatMemRead            0      0.00%    100.00% # Class of committed instruction. (Count)
system.cpu.commitStats0.committedInstType::FloatMemWrite            0      0.00%    100.00% # Class of committed instruction. (Count)
system.cpu.commitStats0.committedInstType::InstPrefetch            0      0.00%    100.00% # Class of committed instruction. (Count)
system.cpu.commitStats0.committedInstType::SimdUnitStrideLoad            0      0.00%    100.00% # Class of committed instruction. (Count)
system.cpu.commitStats0.committedInstType::SimdUnitStrideStore            0      0.00%    100.00% # Class of committed instruction. (Count)
system.cpu.commitStats0.committedInstType::SimdUnitStrideMaskLoad            0      0.00%    100.00% # Class of committed instruction. (Count)
system.cpu.commitStats0.committedInstType::SimdUnitStrideMaskStore            0      0.00%    100.00% # Class of committed instruction. (Count)
system.cpu.commitStats0.committedInstType::SimdStridedLoad            0      0.00%    100.00% # Class of committed instruction. (Count)
system.cpu.commitStats0.committedInstType::SimdStridedStore            0      0.00%    100.00% # Class of committed instruction. (Count)
system.cpu.commitStats0.committedInstType::SimdIndexedLoad            0      0.00%    100.00% # Class of committed instruction. (Count)
system.cpu.commitStats0.committedInstType::SimdIndexedStore            0      0.00%    100.00% # Class of committed instruction. (Count)
system.cpu.commitStats0.committedInstType::SimdWholeRegisterLoad            0      0.00%    100.00% # Class of committed instruction. (Count)
system.cpu.commitStats0.committedInstType::SimdWholeRegisterStore            0      0.00%    100.00% # Class of committed instruction. (Count)
system.cpu.commitStats0.committedInstType::SimdUnitStrideFaultOnlyFirstLoad            0      0.00%    100.00% # Class of committed instruction. (Count)
system.cpu.commitStats0.committedInstType::SimdUnitStrideSegmentedLoad            0      0.00%    100.00% # Class of committed instruction. (Count)
system.cpu.commitStats0.committedInstType::SimdUnitStrideSegmentedStore            0      0.00%    100.00% # Class of committed instruction. (Count)
system.cpu.commitStats0.committedInstType::SimdUnitStrideSegmentedFaultOnlyFirstLoad            0      0.00%    100.00% # Class of committed instruction. (Count)
system.cpu.commitStats0.committedInstType::SimdStrideSegmentedLoad            0      0.00%    100.00% # Class of committed instruction. (Count)
system.cpu.commitStats0.committedInstType::SimdStrideSegmentedStore            0      0.00%    100.00% # Class of committed instruction. (Count)
system.cpu.commitStats0.committedInstType::SimdExt            0      0.00%    100.00% # Class of committed instruction. (Count)
system.cpu.commitStats0.committedInstType::SimdFloatExt            0      0.00%    100.00% # Class of committed instruction. (Count)
system.cpu.commitStats0.committedInstType::SimdConfig            0      0.00%    100.00% # Class of committed instruction. (Count)
system.cpu.commitStats0.committedInstType::SimdBf16Add            0      0.00%    100.00% # Class of committed instruction. (Count)
system.cpu.commitStats0.committedInstType::SimdBf16Cmp            0      0.00%    100.00% # Class of committed instruction. (Count)
system.cpu.commitStats0.committedInstType::SimdBf16Cvt            0      0.00%    100.00% # Class of committed instruction. (Count)
system.cpu.commitStats0.committedInstType::SimdBf16DotProd            0      0.00%    100.00% # Class of committed instruction. (Count)
system.cpu.commitStats0.committedInstType::SimdBf16MatMultAcc            0      0.00%    100.00% # Class of committed instruction. (Count)
system.cpu.commitStats0.committedInstType::SimdBf16Mult            0      0.00%    100.00% # Class of committed instruction. (Count)
system.cpu.commitStats0.committedInstType::SimdBf16MultAcc            0      0.00%    100.00% # Class of committed instruction. (Count)
system.cpu.commitStats0.committedInstType::Bf16Cvt            0      0.00%    100.00% # Class of committed instruction. (Count)
system.cpu.commitStats0.committedInstType::System           32      0.00%    100.00% # Class of committed instruction. (Count)
system.cpu.commitStats0.committedInstType::total   1952149741                       # Class of committed instruction. (Count)
system.cpu.commitStats0.committedControl::IsControl    260064113                       # Class of control type instructions committed (Count)
system.cpu.commitStats0.committedControl::IsDirectControl    259699966                       # Class of control type instructions committed (Count)
system.cpu.commitStats0.committedControl::IsIndirectControl       364147                       # Class of control type instructions committed (Count)
system.cpu.commitStats0.committedControl::IsCondControl    259160422                       # Class of control type instructions committed (Count)
system.cpu.commitStats0.committedControl::IsUncondControl       903691                       # Class of control type instructions committed (Count)
system.cpu.commitStats0.committedControl::IsCall       359115                       # Class of control type instructions committed (Count)
system.cpu.commitStats0.committedControl::IsReturn       359110                       # Class of control type instructions committed (Count)
system.cpu.commitStats0.functionCalls          359115                       # Number of function calls committed (Count)
system.cpu.commitStats0.numCallsReturns        718225                       # Number of function calls and returns committed (Count)
system.cpu.dcache.demandHits::cpu.data      386776024                       # number of demand (read+write) hits (Count)
system.cpu.dcache.demandHits::total         386776024                       # number of demand (read+write) hits (Count)
system.cpu.dcache.overallHits::cpu.data     386776024                       # number of overall hits (Count)
system.cpu.dcache.overallHits::total        386776024                       # number of overall hits (Count)
system.cpu.dcache.demandMisses::cpu.data    262603987                       # number of demand (read+write) misses (Count)
system.cpu.dcache.demandMisses::total       262603987                       # number of demand (read+write) misses (Count)
system.cpu.dcache.overallMisses::cpu.data    262603987                       # number of overall misses (Count)
system.cpu.dcache.overallMisses::total      262603987                       # number of overall misses (Count)
system.cpu.dcache.demandMissLatency::cpu.data 15315648440000                       # number of demand (read+write) miss ticks (Tick)
system.cpu.dcache.demandMissLatency::total 15315648440000                       # number of demand (read+write) miss ticks (Tick)
system.cpu.dcache.overallMissLatency::cpu.data 15315648440000                       # number of overall miss ticks (Tick)
system.cpu.dcache.overallMissLatency::total 15315648440000                       # number of overall miss ticks (Tick)
system.cpu.dcache.demandAccesses::cpu.data    649380011                       # number of demand (read+write) accesses (Count)
system.cpu.dcache.demandAccesses::total     649380011                       # number of demand (read+write) accesses (Count)
system.cpu.dcache.overallAccesses::cpu.data    649380011                       # number of overall (read+write) accesses (Count)
system.cpu.dcache.overallAccesses::total    649380011                       # number of overall (read+write) accesses (Count)
system.cpu.dcache.demandMissRate::cpu.data     0.404392                       # miss rate for demand accesses (Ratio)
system.cpu.dcache.demandMissRate::total      0.404392                       # miss rate for demand accesses (Ratio)
system.cpu.dcache.overallMissRate::cpu.data     0.404392                       # miss rate for overall accesses (Ratio)
system.cpu.dcache.overallMissRate::total     0.404392                       # miss rate for overall accesses (Ratio)
system.cpu.dcache.demandAvgMissLatency::cpu.data 58322.223569                       # average overall miss latency in ticks ((Tick/Count))
system.cpu.dcache.demandAvgMissLatency::total 58322.223569                       # average overall miss latency in ticks ((Tick/Count))
system.cpu.dcache.overallAvgMissLatency::cpu.data 58322.223569                       # average overall miss latency ((Tick/Count))
system.cpu.dcache.overallAvgMissLatency::total 58322.223569                       # average overall miss latency ((Tick/Count))
system.cpu.dcache.blockedCycles::no_mshrs            0                       # number of cycles access was blocked (Cycle)
system.cpu.dcache.blockedCycles::no_wbuffers            0                       # number of cycles access was blocked (Cycle)
system.cpu.dcache.blockedCycles::no_targets            0                       # number of cycles access was blocked (Cycle)
system.cpu.dcache.blockedCauses::no_mshrs            0                       # number of times access was blocked (Count)
system.cpu.dcache.blockedCauses::no_wbuffers            0                       # number of times access was blocked (Count)
system.cpu.dcache.blockedCauses::no_targets            0                       # number of times access was blocked (Count)
system.cpu.dcache.avgBlocked::no_mshrs            nan                       # average number of cycles each access was blocked ((Cycle/Count))
system.cpu.dcache.avgBlocked::no_wbuffers          nan                       # average number of cycles each access was blocked ((Cycle/Count))
system.cpu.dcache.avgBlocked::no_targets          nan                       # average number of cycles each access was blocked ((Cycle/Count))
system.cpu.dcache.writebacks::writebacks    261949973                       # number of writebacks (Count)
system.cpu.dcache.writebacks::total         261949973                       # number of writebacks (Count)
system.cpu.dcache.demandMshrHits::cpu.data       653505                       # number of demand (read+write) MSHR hits (Count)
system.cpu.dcache.demandMshrHits::total        653505                       # number of demand (read+write) MSHR hits (Count)
system.cpu.dcache.overallMshrHits::cpu.data       653505                       # number of overall MSHR hits (Count)
system.cpu.dcache.overallMshrHits::total       653505                       # number of overall MSHR hits (Count)
system.cpu.dcache.demandMshrMisses::cpu.data    261950482                       # number of demand (read+write) MSHR misses (Count)
system.cpu.dcache.demandMshrMisses::total    261950482                       # number of demand (read+write) MSHR misses (Count)
system.cpu.dcache.overallMshrMisses::cpu.data    261950482                       # number of overall MSHR misses (Count)
system.cpu.dcache.overallMshrMisses::total    261950482                       # number of overall MSHR misses (Count)
system.cpu.dcache.demandMshrMissLatency::cpu.data 15011582787000                       # number of demand (read+write) MSHR miss ticks (Tick)
system.cpu.dcache.demandMshrMissLatency::total 15011582787000                       # number of demand (read+write) MSHR miss ticks (Tick)
system.cpu.dcache.overallMshrMissLatency::cpu.data 15011582787000                       # number of overall MSHR miss ticks (Tick)
system.cpu.dcache.overallMshrMissLatency::total 15011582787000                       # number of overall MSHR miss ticks (Tick)
system.cpu.dcache.demandMshrMissRate::cpu.data     0.403386                       # mshr miss ratio for demand accesses (Ratio)
system.cpu.dcache.demandMshrMissRate::total     0.403386                       # mshr miss ratio for demand accesses (Ratio)
system.cpu.dcache.overallMshrMissRate::cpu.data     0.403386                       # mshr miss ratio for overall accesses (Ratio)
system.cpu.dcache.overallMshrMissRate::total     0.403386                       # mshr miss ratio for overall accesses (Ratio)
system.cpu.dcache.demandAvgMshrMissLatency::cpu.data 57306.948521                       # average overall mshr miss latency ((Tick/Count))
system.cpu.dcache.demandAvgMshrMissLatency::total 57306.948521                       # average overall mshr miss latency ((Tick/Count))
system.cpu.dcache.overallAvgMshrMissLatency::cpu.data 57306.948521                       # average overall mshr miss latency ((Tick/Count))
system.cpu.dcache.overallAvgMshrMissLatency::total 57306.948521                       # average overall mshr miss latency ((Tick/Count))
system.cpu.dcache.replacements              261949973                       # number of replacements (Count)
system.cpu.dcache.LoadLockedReq.hits::cpu.data            4                       # number of LoadLockedReq hits (Count)
system.cpu.dcache.LoadLockedReq.hits::total            4                       # number of LoadLockedReq hits (Count)
system.cpu.dcache.LoadLockedReq.accesses::cpu.data            4                       # number of LoadLockedReq accesses(hits+misses) (Count)
system.cpu.dcache.LoadLockedReq.accesses::total            4                       # number of LoadLockedReq accesses(hits+misses) (Count)
system.cpu.dcache.ReadReq.hits::cpu.data    255571902                       # number of ReadReq hits (Count)
system.cpu.dcache.ReadReq.hits::total       255571902                       # number of ReadReq hits (Count)
system.cpu.dcache.ReadReq.misses::cpu.data    261337907                       # number of ReadReq misses (Count)
system.cpu.dcache.ReadReq.misses::total     261337907                       # number of ReadReq misses (Count)
system.cpu.dcache.ReadReq.missLatency::cpu.data 15236940074000                       # number of ReadReq miss ticks (Tick)
system.cpu.dcache.ReadReq.missLatency::total 15236940074000                       # number of ReadReq miss ticks (Tick)
system.cpu.dcache.ReadReq.accesses::cpu.data    516909809                       # number of ReadReq accesses(hits+misses) (Count)
system.cpu.dcache.ReadReq.accesses::total    516909809                       # number of ReadReq accesses(hits+misses) (Count)
system.cpu.dcache.ReadReq.missRate::cpu.data     0.505577                       # miss rate for ReadReq accesses (Ratio)
system.cpu.dcache.ReadReq.missRate::total     0.505577                       # miss rate for ReadReq accesses (Ratio)
system.cpu.dcache.ReadReq.avgMissLatency::cpu.data 58303.597243                       # average ReadReq miss latency ((Tick/Count))
system.cpu.dcache.ReadReq.avgMissLatency::total 58303.597243                       # average ReadReq miss latency ((Tick/Count))
system.cpu.dcache.ReadReq.mshrHits::cpu.data       102502                       # number of ReadReq MSHR hits (Count)
system.cpu.dcache.ReadReq.mshrHits::total       102502                       # number of ReadReq MSHR hits (Count)
system.cpu.dcache.ReadReq.mshrMisses::cpu.data    261235405                       # number of ReadReq MSHR misses (Count)
system.cpu.dcache.ReadReq.mshrMisses::total    261235405                       # number of ReadReq MSHR misses (Count)
system.cpu.dcache.ReadReq.mshrMissLatency::cpu.data 14968261402000                       # number of ReadReq MSHR miss ticks (Tick)
system.cpu.dcache.ReadReq.mshrMissLatency::total 14968261402000                       # number of ReadReq MSHR miss ticks (Tick)
system.cpu.dcache.ReadReq.mshrMissRate::cpu.data     0.505379                       # mshr miss rate for ReadReq accesses (Ratio)
system.cpu.dcache.ReadReq.mshrMissRate::total     0.505379                       # mshr miss rate for ReadReq accesses (Ratio)
system.cpu.dcache.ReadReq.avgMshrMissLatency::cpu.data 57297.981497                       # average ReadReq mshr miss latency ((Tick/Count))
system.cpu.dcache.ReadReq.avgMshrMissLatency::total 57297.981497                       # average ReadReq mshr miss latency ((Tick/Count))
system.cpu.dcache.StoreCondReq.hits::cpu.data            4                       # number of StoreCondReq hits (Count)
system.cpu.dcache.StoreCondReq.hits::total            4                       # number of StoreCondReq hits (Count)
system.cpu.dcache.StoreCondReq.accesses::cpu.data            4                       # number of StoreCondReq accesses(hits+misses) (Count)
system.cpu.dcache.StoreCondReq.accesses::total            4                       # number of StoreCondReq accesses(hits+misses) (Count)
system.cpu.dcache.SwapReq.hits::cpu.data        50835                       # number of SwapReq hits (Count)
system.cpu.dcache.SwapReq.hits::total           50835                       # number of SwapReq hits (Count)
system.cpu.dcache.SwapReq.misses::cpu.data            3                       # number of SwapReq misses (Count)
system.cpu.dcache.SwapReq.misses::total             3                       # number of SwapReq misses (Count)
system.cpu.dcache.SwapReq.missLatency::cpu.data       180000                       # number of SwapReq miss ticks (Tick)
system.cpu.dcache.SwapReq.missLatency::total       180000                       # number of SwapReq miss ticks (Tick)
system.cpu.dcache.SwapReq.accesses::cpu.data        50838                       # number of SwapReq accesses(hits+misses) (Count)
system.cpu.dcache.SwapReq.accesses::total        50838                       # number of SwapReq accesses(hits+misses) (Count)
system.cpu.dcache.SwapReq.missRate::cpu.data     0.000059                       # miss rate for SwapReq accesses (Ratio)
system.cpu.dcache.SwapReq.missRate::total     0.000059                       # miss rate for SwapReq accesses (Ratio)
system.cpu.dcache.SwapReq.avgMissLatency::cpu.data        60000                       # average SwapReq miss latency ((Tick/Count))
system.cpu.dcache.SwapReq.avgMissLatency::total        60000                       # average SwapReq miss latency ((Tick/Count))
system.cpu.dcache.SwapReq.mshrMisses::cpu.data            3                       # number of SwapReq MSHR misses (Count)
system.cpu.dcache.SwapReq.mshrMisses::total            3                       # number of SwapReq MSHR misses (Count)
system.cpu.dcache.SwapReq.mshrMissLatency::cpu.data       177000                       # number of SwapReq MSHR miss ticks (Tick)
system.cpu.dcache.SwapReq.mshrMissLatency::total       177000                       # number of SwapReq MSHR miss ticks (Tick)
system.cpu.dcache.SwapReq.mshrMissRate::cpu.data     0.000059                       # mshr miss rate for SwapReq accesses (Ratio)
system.cpu.dcache.SwapReq.mshrMissRate::total     0.000059                       # mshr miss rate for SwapReq accesses (Ratio)
system.cpu.dcache.SwapReq.avgMshrMissLatency::cpu.data        59000                       # average SwapReq mshr miss latency ((Tick/Count))
system.cpu.dcache.SwapReq.avgMshrMissLatency::total        59000                       # average SwapReq mshr miss latency ((Tick/Count))
system.cpu.dcache.WriteLineReq.hits::cpu.data            2                       # number of WriteLineReq hits (Count)
system.cpu.dcache.WriteLineReq.hits::total            2                       # number of WriteLineReq hits (Count)
system.cpu.dcache.WriteLineReq.misses::cpu.data         6343                       # number of WriteLineReq misses (Count)
system.cpu.dcache.WriteLineReq.misses::total         6343                       # number of WriteLineReq misses (Count)
system.cpu.dcache.WriteLineReq.missLatency::cpu.data     85582000                       # number of WriteLineReq miss ticks (Tick)
system.cpu.dcache.WriteLineReq.missLatency::total     85582000                       # number of WriteLineReq miss ticks (Tick)
system.cpu.dcache.WriteLineReq.accesses::cpu.data         6345                       # number of WriteLineReq accesses(hits+misses) (Count)
system.cpu.dcache.WriteLineReq.accesses::total         6345                       # number of WriteLineReq accesses(hits+misses) (Count)
system.cpu.dcache.WriteLineReq.missRate::cpu.data     0.999685                       # miss rate for WriteLineReq accesses (Ratio)
system.cpu.dcache.WriteLineReq.missRate::total     0.999685                       # miss rate for WriteLineReq accesses (Ratio)
system.cpu.dcache.WriteLineReq.avgMissLatency::cpu.data 13492.353776                       # average WriteLineReq miss latency ((Tick/Count))
system.cpu.dcache.WriteLineReq.avgMissLatency::total 13492.353776                       # average WriteLineReq miss latency ((Tick/Count))
system.cpu.dcache.WriteLineReq.mshrMisses::cpu.data         6343                       # number of WriteLineReq MSHR misses (Count)
system.cpu.dcache.WriteLineReq.mshrMisses::total         6343                       # number of WriteLineReq MSHR misses (Count)
system.cpu.dcache.WriteLineReq.mshrMissLatency::cpu.data     79239000                       # number of WriteLineReq MSHR miss ticks (Tick)
system.cpu.dcache.WriteLineReq.mshrMissLatency::total     79239000                       # number of WriteLineReq MSHR miss ticks (Tick)
system.cpu.dcache.WriteLineReq.mshrMissRate::cpu.data     0.999685                       # mshr miss rate for WriteLineReq accesses (Ratio)
system.cpu.dcache.WriteLineReq.mshrMissRate::total     0.999685                       # mshr miss rate for WriteLineReq accesses (Ratio)
system.cpu.dcache.WriteLineReq.avgMshrMissLatency::cpu.data 12492.353776                       # average WriteLineReq mshr miss latency ((Tick/Count))
system.cpu.dcache.WriteLineReq.avgMshrMissLatency::total 12492.353776                       # average WriteLineReq mshr miss latency ((Tick/Count))
system.cpu.dcache.WriteReq.hits::cpu.data    131204120                       # number of WriteReq hits (Count)
system.cpu.dcache.WriteReq.hits::total      131204120                       # number of WriteReq hits (Count)
system.cpu.dcache.WriteReq.misses::cpu.data      1259737                       # number of WriteReq misses (Count)
system.cpu.dcache.WriteReq.misses::total      1259737                       # number of WriteReq misses (Count)
system.cpu.dcache.WriteReq.missLatency::cpu.data  78622784000                       # number of WriteReq miss ticks (Tick)
system.cpu.dcache.WriteReq.missLatency::total  78622784000                       # number of WriteReq miss ticks (Tick)
system.cpu.dcache.WriteReq.accesses::cpu.data    132463857                       # number of WriteReq accesses(hits+misses) (Count)
system.cpu.dcache.WriteReq.accesses::total    132463857                       # number of WriteReq accesses(hits+misses) (Count)
system.cpu.dcache.WriteReq.missRate::cpu.data     0.009510                       # miss rate for WriteReq accesses (Ratio)
system.cpu.dcache.WriteReq.missRate::total     0.009510                       # miss rate for WriteReq accesses (Ratio)
system.cpu.dcache.WriteReq.avgMissLatency::cpu.data 62412.062200                       # average WriteReq miss latency ((Tick/Count))
system.cpu.dcache.WriteReq.avgMissLatency::total 62412.062200                       # average WriteReq miss latency ((Tick/Count))
system.cpu.dcache.WriteReq.mshrHits::cpu.data       551003                       # number of WriteReq MSHR hits (Count)
system.cpu.dcache.WriteReq.mshrHits::total       551003                       # number of WriteReq MSHR hits (Count)
system.cpu.dcache.WriteReq.mshrMisses::cpu.data       708734                       # number of WriteReq MSHR misses (Count)
system.cpu.dcache.WriteReq.mshrMisses::total       708734                       # number of WriteReq MSHR misses (Count)
system.cpu.dcache.WriteReq.mshrMissLatency::cpu.data  43242146000                       # number of WriteReq MSHR miss ticks (Tick)
system.cpu.dcache.WriteReq.mshrMissLatency::total  43242146000                       # number of WriteReq MSHR miss ticks (Tick)
system.cpu.dcache.WriteReq.mshrMissRate::cpu.data     0.005350                       # mshr miss rate for WriteReq accesses (Ratio)
system.cpu.dcache.WriteReq.mshrMissRate::total     0.005350                       # mshr miss rate for WriteReq accesses (Ratio)
system.cpu.dcache.WriteReq.avgMshrMissLatency::cpu.data 61013.223579                       # average WriteReq mshr miss latency ((Tick/Count))
system.cpu.dcache.WriteReq.avgMshrMissLatency::total 61013.223579                       # average WriteReq mshr miss latency ((Tick/Count))
system.cpu.dcache.power_state.pwrStateResidencyTicks::UNDEFINED 16448377846000                       # Cumulative time (in ticks) in various power states (Tick)
system.cpu.dcache.tags.tagsInUse           511.998599                       # Average ticks per tags in use ((Tick/Count))
system.cpu.dcache.tags.totalRefs            648777352                       # Total number of references to valid blocks. (Count)
system.cpu.dcache.tags.sampledRefs          261950485                       # Sample count of references to valid blocks. (Count)
system.cpu.dcache.tags.avgRefs               2.476718                       # Average number of references to valid blocks. ((Count/Count))
system.cpu.dcache.tags.warmupTick              147000                       # The tick when the warmup percentage was hit. (Tick)
system.cpu.dcache.tags.occupancies::cpu.data   511.998599                       # Average occupied blocks per tick, per requestor ((Count/Tick))
system.cpu.dcache.tags.avgOccs::cpu.data     0.999997                       # Average percentage of cache occupancy ((Ratio/Tick))
system.cpu.dcache.tags.avgOccs::total        0.999997                       # Average percentage of cache occupancy ((Ratio/Tick))
system.cpu.dcache.tags.occupanciesTaskId::1024          512                       # Occupied blocks per task id (Count)
system.cpu.dcache.tags.ageTaskId_1024::0           79                       # Occupied blocks per task id, per block age (Count)
system.cpu.dcache.tags.ageTaskId_1024::1          433                       # Occupied blocks per task id, per block age (Count)
system.cpu.dcache.tags.ratioOccsTaskId::1024            1                       # Ratio of occupied blocks and all blocks, per task id (Ratio)
system.cpu.dcache.tags.tagAccesses         2859673913                       # Number of tag accesses (Count)
system.cpu.dcache.tags.dataAccesses        2859673913                       # Number of data accesses (Count)
system.cpu.dcache.tags.power_state.pwrStateResidencyTicks::UNDEFINED 16448377846000                       # Cumulative time (in ticks) in various power states (Tick)
system.cpu.executeStats0.numInsts          1812108073                       # Number of executed instructions (Count)
system.cpu.executeStats0.numNop                     0                       # Number of nop insts executed (Count)
system.cpu.executeStats0.numBranches        260064113                       # Number of branches executed (Count)
system.cpu.executeStats0.numLoadInsts       516374583                       # Number of load instructions executed (Count)
system.cpu.executeStats0.numStoreInsts      132521045                       # Number of stores executed (Count)
system.cpu.executeStats0.instRate            0.110169                       # Inst execution rate ((Count/Cycle))
system.cpu.executeStats0.numCCRegReads      776604714                       # Number of times the CC registers were read (Count)
system.cpu.executeStats0.numCCRegWrites     776641152                       # Number of times the CC registers were written (Count)
system.cpu.executeStats0.numFpRegWrites             0                       # Number of times the floating registers were written (Count)
system.cpu.executeStats0.numIntAluAccesses   1433818832                       # Number of integer alu accesses (Count)
system.cpu.executeStats0.numIntRegReads    1818630589                       # Number of times the integer registers were read (Count)
system.cpu.executeStats0.numIntRegWrites    525927223                       # Number of times the integer registers were written (Count)
system.cpu.executeStats0.numMemRefs         648895628                       # Number of memory refs (Count)
system.cpu.executeStats0.numVecAluAccesses    908834060                       # Number of vector alu accesses (Count)
system.cpu.executeStats0.numVecPredRegReads           14                       # Number of times the predicate registers were read (Count)
system.cpu.executeStats0.numVecPredRegWrites            4                       # Number of times the predicate registers were written (Count)
system.cpu.executeStats0.numVecRegReads     909215123                       # Number of times the vector registers were read (Count)
system.cpu.executeStats0.numVecRegWrites    776451448                       # Number of times the vector registers were written (Count)
system.cpu.executeStats0.numDiscardedOps      1652080                       # Number of ops (including micro ops) which were discarded before commit (Count)
system.cpu.fetch2.totalInstructions        1821257502                       # Total number of instructions successfully decoded (Count)
system.cpu.fetch2.intInstructions           650412331                       # Number of integer instructions successfully decoded (Count)
system.cpu.fetch2.fpInstructions                    0                       # Number of floating point instructions successfully decoded (Count)
system.cpu.fetch2.vecInstructions           262533363                       # Number of SIMD instructions successfully decoded (Count)
system.cpu.fetch2.loadInstructions          385040241                       # Number of memory load instructions successfully decoded (Count)
system.cpu.fetch2.storeInstructions         126356798                       # Number of memory store instructions successfully decoded (Count)
system.cpu.fetch2.amoInstructions               52482                       # Number of memory atomic instructions successfully decoded (Count)
system.cpu.fetchStats0.numInsts            1821257502                       # Number of instructions fetched (thread level) (Count)
system.cpu.fetchStats0.numOps                       0                       # Number of ops (including micro ops) fetched (thread level) (Count)
system.cpu.fetchStats0.fetchRate             0.110726                       # Number of inst fetches per cycle ((Count/Cycle))
system.cpu.fetchStats0.numBranches          261158403                       # Number of branches fetched (Count)
system.cpu.fetchStats0.branchRate            0.015877                       # Number of branch fetches per cycle (Ratio)
system.cpu.fetchStats0.numFetchSuspends             0                       # Number of times Execute suspended instruction fetching (Count)
system.cpu.icache.demandHits::cpu.inst      780196515                       # number of demand (read+write) hits (Count)
system.cpu.icache.demandHits::total         780196515                       # number of demand (read+write) hits (Count)
system.cpu.icache.overallHits::cpu.inst     780196515                       # number of overall hits (Count)
system.cpu.icache.overallHits::total        780196515                       # number of overall hits (Count)
system.cpu.icache.demandMisses::cpu.inst          553                       # number of demand (read+write) misses (Count)
system.cpu.icache.demandMisses::total             553                       # number of demand (read+write) misses (Count)
system.cpu.icache.overallMisses::cpu.inst          553                       # number of overall misses (Count)
system.cpu.icache.overallMisses::total            553                       # number of overall misses (Count)
system.cpu.icache.demandMissLatency::cpu.inst     31381000                       # number of demand (read+write) miss ticks (Tick)
[...]
system.mem_ctrl.dram.perBankRdBursts::17      2885977                       # Per bank write bursts (Count)
system.mem_ctrl.dram.perBankRdBursts::18       295784                       # Per bank write bursts (Count)
system.mem_ctrl.dram.perBankRdBursts::19       295956                       # Per bank write bursts (Count)
system.mem_ctrl.dram.perBankRdBursts::20      2254955                       # Per bank write bursts (Count)
system.mem_ctrl.dram.perBankRdBursts::21      2855883                       # Per bank write bursts (Count)
system.mem_ctrl.dram.perBankRdBursts::22      2855930                       # Per bank write bursts (Count)
system.mem_ctrl.dram.perBankRdBursts::23      5416200                       # Per bank write bursts (Count)
system.mem_ctrl.dram.perBankRdBursts::24      5413321                       # Per bank write bursts (Count)
system.mem_ctrl.dram.perBankRdBursts::25     10502909                       # Per bank write bursts (Count)
system.mem_ctrl.dram.perBankRdBursts::26     10532785                       # Per bank write bursts (Count)
system.mem_ctrl.dram.perBankRdBursts::27     10533374                       # Per bank write bursts (Count)
system.mem_ctrl.dram.perBankRdBursts::28     10531945                       # Per bank write bursts (Count)
system.mem_ctrl.dram.perBankRdBursts::29     10533133                       # Per bank write bursts (Count)
system.mem_ctrl.dram.perBankRdBursts::30     10533755                       # Per bank write bursts (Count)
system.mem_ctrl.dram.perBankRdBursts::31     10533866                       # Per bank write bursts (Count)
system.mem_ctrl.dram.perBankWrBursts::0      10585686                       # Per bank write bursts (Count)
system.mem_ctrl.dram.perBankWrBursts::1      11021280                       # Per bank write bursts (Count)
system.mem_ctrl.dram.perBankWrBursts::2      10537743                       # Per bank write bursts (Count)
system.mem_ctrl.dram.perBankWrBursts::3      10537743                       # Per bank write bursts (Count)
system.mem_ctrl.dram.perBankWrBursts::4      10538020                       # Per bank write bursts (Count)
system.mem_ctrl.dram.perBankWrBursts::5      10538015                       # Per bank write bursts (Count)
system.mem_ctrl.dram.perBankWrBursts::6      10538065                       # Per bank write bursts (Count)
system.mem_ctrl.dram.perBankWrBursts::7      10538061                       # Per bank write bursts (Count)
system.mem_ctrl.dram.perBankWrBursts::8      10537984                       # Per bank write bursts (Count)
system.mem_ctrl.dram.perBankWrBursts::9      10538090                       # Per bank write bursts (Count)
system.mem_ctrl.dram.perBankWrBursts::10     10740488                       # Per bank write bursts (Count)
system.mem_ctrl.dram.perBankWrBursts::11     10538051                       # Per bank write bursts (Count)
system.mem_ctrl.dram.perBankWrBursts::12     10537993                       # Per bank write bursts (Count)
system.mem_ctrl.dram.perBankWrBursts::13     10538017                       # Per bank write bursts (Count)
system.mem_ctrl.dram.perBankWrBursts::14      6837647                       # Per bank write bursts (Count)
system.mem_ctrl.dram.perBankWrBursts::15      5417481                       # Per bank write bursts (Count)
system.mem_ctrl.dram.perBankWrBursts::16      5417363                       # Per bank write bursts (Count)
system.mem_ctrl.dram.perBankWrBursts::17      2887284                       # Per bank write bursts (Count)
system.mem_ctrl.dram.perBankWrBursts::18       297110                       # Per bank write bursts (Count)
system.mem_ctrl.dram.perBankWrBursts::19       297200                       # Per bank write bursts (Count)
system.mem_ctrl.dram.perBankWrBursts::20      2257165                       # Per bank write bursts (Count)
system.mem_ctrl.dram.perBankWrBursts::21      2857346                       # Per bank write bursts (Count)
system.mem_ctrl.dram.perBankWrBursts::22      2857390                       # Per bank write bursts (Count)
system.mem_ctrl.dram.perBankWrBursts::23      5417642                       # Per bank write bursts (Count)
system.mem_ctrl.dram.perBankWrBursts::24      5415807                       # Per bank write bursts (Count)
system.mem_ctrl.dram.perBankWrBursts::25     10505535                       # Per bank write bursts (Count)
system.mem_ctrl.dram.perBankWrBursts::26     10535627                       # Per bank write bursts (Count)
system.mem_ctrl.dram.perBankWrBursts::27     10535551                       # Per bank write bursts (Count)
system.mem_ctrl.dram.perBankWrBursts::28     10535551                       # Per bank write bursts (Count)
system.mem_ctrl.dram.perBankWrBursts::29     10535607                       # Per bank write bursts (Count)
system.mem_ctrl.dram.perBankWrBursts::30     10535573                       # Per bank write bursts (Count)
system.mem_ctrl.dram.perBankWrBursts::31     10535553                       # Per bank write bursts (Count)
system.mem_ctrl.dram.totQLat             2150293159060                       # Total ticks spent queuing (Tick)
system.mem_ctrl.dram.totBusLat           872614234632                       # Total ticks spent in databus transfers (Tick)
system.mem_ctrl.dram.totMemAccLat        6731256001852                       # Total ticks spent from burst creation until serviced by the DRAM (Tick)
system.mem_ctrl.dram.avgQLat                  8210.70                       # Average queueing delay per DRAM burst ((Tick/Count))
system.mem_ctrl.dram.avgBusLat                3332.00                       # Average bus latency per DRAM burst ((Tick/Count))
system.mem_ctrl.dram.avgMemAccLat            25702.70                       # Average memory access latency per DRAM burst ((Tick/Count))
system.mem_ctrl.dram.readRowHits            239311758                       # Number of row buffer hits during reads (Count)
system.mem_ctrl.dram.writeRowHits           239529045                       # Number of row buffer hits during writes (Count)
system.mem_ctrl.dram.readRowHitRate             91.38                       # Row buffer hit rate for reads (Ratio)
system.mem_ctrl.dram.writeRowHitRate            91.44                       # Row buffer hit rate for writes (Ratio)
system.mem_ctrl.dram.bytesPerActivate::samples     44991874                       # Bytes accessed per row activation (Byte)
system.mem_ctrl.dram.bytesPerActivate::mean   745.140933                       # Bytes accessed per row activation (Byte)
system.mem_ctrl.dram.bytesPerActivate::gmean   585.950327                       # Bytes accessed per row activation (Byte)
system.mem_ctrl.dram.bytesPerActivate::stdev   357.307443                       # Bytes accessed per row activation (Byte)
system.mem_ctrl.dram.bytesPerActivate::0-127      3118521      6.93%      6.93% # Bytes accessed per row activation (Byte)
system.mem_ctrl.dram.bytesPerActivate::128-255      3913719      8.70%     15.63% # Bytes accessed per row activation (Byte)
system.mem_ctrl.dram.bytesPerActivate::256-383      2562133      5.69%     21.32% # Bytes accessed per row activation (Byte)
system.mem_ctrl.dram.bytesPerActivate::384-511      2704237      6.01%     27.34% # Bytes accessed per row activation (Byte)
system.mem_ctrl.dram.bytesPerActivate::512-639      2646834      5.88%     33.22% # Bytes accessed per row activation (Byte)
system.mem_ctrl.dram.bytesPerActivate::640-767      1817110      4.04%     37.26% # Bytes accessed per row activation (Byte)
system.mem_ctrl.dram.bytesPerActivate::768-895      2145757      4.77%     42.03% # Bytes accessed per row activation (Byte)
system.mem_ctrl.dram.bytesPerActivate::896-1023      1985054      4.41%     46.44% # Bytes accessed per row activation (Byte)
system.mem_ctrl.dram.bytesPerActivate::1024-1151     24098509     53.56%    100.00% # Bytes accessed per row activation (Byte)
system.mem_ctrl.dram.bytesPerActivate::total     44991874                       # Bytes accessed per row activation (Byte)
system.mem_ctrl.dram.dramBytesRead        16760897664                       # Total bytes read (Byte)
system.mem_ctrl.dram.dramBytesWritten     16764394752                       # Total bytes written (Byte)
system.mem_ctrl.dram.avgRdBW              1019.000039                       # Average DRAM read bandwidth in MiBytes/s ((Byte/Second))
system.mem_ctrl.dram.avgWrBW              1019.212649                       # Average DRAM write bandwidth in MiBytes/s ((Byte/Second))
system.mem_ctrl.dram.peakBW                  19207.00                       # Theoretical peak bandwidth in MiByte/s ((Byte/Second))
system.mem_ctrl.dram.busUtil                    10.61                       # Data bus utilization in percentage (Ratio)
system.mem_ctrl.dram.busUtilRead                 5.31                       # Data bus utilization in percentage for reads (Ratio)
system.mem_ctrl.dram.busUtilWrite                5.31                       # Data bus utilization in percentage for writes (Ratio)
system.mem_ctrl.dram.pageHitRate                91.41                       # Row buffer hit rate, read and write combined (Ratio)
system.mem_ctrl.dram.power_state.pwrStateResidencyTicks::UNDEFINED 16448377846000                       # Cumulative time (in ticks) in various power states (Tick)
system.mem_ctrl.dram.rank0.actEnergy     43086341686.658745                       # Energy for activate commands per rank (pJ) (Joule)
system.mem_ctrl.dram.rank0.preEnergy     76063937218.459549                       # Energy for precharge commands per rank (pJ) (Joule)
system.mem_ctrl.dram.rank0.readEnergy    440229142520.131897                       # Energy for read commands per rank (pJ) (Joule)
system.mem_ctrl.dram.rank0.writeEnergy   378676527817.781128                       # Energy for write commands per rank (pJ) (Joule)
system.mem_ctrl.dram.rank0.refreshEnergy 1427813109896.762451                       # Energy for refresh commands per rank (pJ) (Joule)
system.mem_ctrl.dram.rank0.actBackEnergy 7421296272387.951172                       # Energy for active background per rank (pJ) (Joule)
system.mem_ctrl.dram.rank0.preBackEnergy 245419092173.895782                       # Energy for precharge background per rank (pJ) (Joule)
system.mem_ctrl.dram.rank0.actPowerDownEnergy            0                       # Energy for active power-down per rank (pJ) (Joule)
system.mem_ctrl.dram.rank0.prePowerDownEnergy            0                       # Energy for precharge power-down per rank (pJ) (Joule)
system.mem_ctrl.dram.rank0.selfRefreshEnergy            0                       # Energy for self refresh per rank (pJ) (Joule)
system.mem_ctrl.dram.rank0.totalEnergy   10032584423758.482422                       # Total energy per rank (pJ) (Joule)
system.mem_ctrl.dram.rank0.averagePower    609.943699                       # Core power per rank (mW) (Watt)
system.mem_ctrl.dram.rank0.totalIdleTime            0                       # Total Idle time Per DRAM Rank (Tick)
system.mem_ctrl.dram.rank0.pwrStateTime::IDLE 688959616730                       # Time in different power states (Tick)
system.mem_ctrl.dram.rank0.pwrStateTime::REF 739410350000                       # Time in different power states (Tick)
system.mem_ctrl.dram.rank0.pwrStateTime::SREF            0                       # Time in different power states (Tick)
system.mem_ctrl.dram.rank0.pwrStateTime::PRE_PDN            0                       # Time in different power states (Tick)
system.mem_ctrl.dram.rank0.pwrStateTime::ACT 15020007879270                       # Time in different power states (Tick)
system.mem_ctrl.dram.rank0.pwrStateTime::ACT_PDN            0                       # Time in different power states (Tick)
system.mem_ctrl.dram.rank1.actEnergy     27072933333.083820                       # Energy for activate commands per rank (pJ) (Joule)
system.mem_ctrl.dram.rank1.preEnergy     47794120729.495117                       # Energy for precharge commands per rank (pJ) (Joule)
system.mem_ctrl.dram.rank1.readEnergy    278106895429.723145                       # Energy for read commands per rank (pJ) (Joule)
system.mem_ctrl.dram.rank1.writeEnergy   239263253840.792389                       # Energy for write commands per rank (pJ) (Joule)
system.mem_ctrl.dram.rank1.refreshEnergy 1427813109896.762451                       # Energy for refresh commands per rank (pJ) (Joule)
system.mem_ctrl.dram.rank1.actBackEnergy 6642337897157.198242                       # Energy for active background per rank (pJ) (Joule)
system.mem_ctrl.dram.rank1.preBackEnergy 783177158328.031494                       # Energy for precharge background per rank (pJ) (Joule)
system.mem_ctrl.dram.rank1.actPowerDownEnergy            0                       # Energy for active power-down per rank (pJ) (Joule)
system.mem_ctrl.dram.rank1.prePowerDownEnergy            0                       # Energy for precharge power-down per rank (pJ) (Joule)
system.mem_ctrl.dram.rank1.selfRefreshEnergy            0                       # Energy for self refresh per rank (pJ) (Joule)
system.mem_ctrl.dram.rank1.totalEnergy   9445565368762.039062                       # Total energy per rank (pJ) (Joule)
system.mem_ctrl.dram.rank1.averagePower    574.255131                       # Core power per rank (mW) (Watt)
system.mem_ctrl.dram.rank1.totalIdleTime            0                       # Total Idle time Per DRAM Rank (Tick)
system.mem_ctrl.dram.rank1.pwrStateTime::IDLE 2331423117720                       # Time in different power states (Tick)
system.mem_ctrl.dram.rank1.pwrStateTime::REF 739410350000                       # Time in different power states (Tick)
system.mem_ctrl.dram.rank1.pwrStateTime::SREF            0                       # Time in different power states (Tick)
system.mem_ctrl.dram.rank1.pwrStateTime::PRE_PDN            0                       # Time in different power states (Tick)
system.mem_ctrl.dram.rank1.pwrStateTime::ACT 13377544378280                       # Time in different power states (Tick)
system.mem_ctrl.dram.rank1.pwrStateTime::ACT_PDN            0                       # Time in different power states (Tick)
system.mem_ctrl.power_state.pwrStateResidencyTicks::UNDEFINED 16448377846000                       # Cumulative time (in ticks) in various power states (Tick)
system.membus.transDist::ReadResp           261235957                       # Transaction distribution (Count)
system.membus.transDist::WritebackDirty     126536235                       # Transaction distribution (Count)
system.membus.transDist::WritebackClean     135413826                       # Transaction distribution (Count)
system.membus.transDist::ReadExReq             708737                       # Transaction distribution (Count)
system.membus.transDist::ReadExResp            708737                       # Transaction distribution (Count)
system.membus.transDist::ReadSharedReq      261235958                       # Transaction distribution (Count)
system.membus.transDist::InvalidateReq           6343                       # Transaction distribution (Count)
system.membus.pktCount_system.cpu.icache.mem_side_port::system.mem_ctrl.port         1193                       # Packet count per connected requestor and responder (Count)
system.membus.pktCount_system.cpu.dcache.mem_side_port::system.mem_ctrl.port    785844600                       # Packet count per connected requestor and responder (Count)
system.membus.pktCount::total               785845793                       # Packet count per connected requestor and responder (Count)
system.membus.pktSize_system.cpu.icache.mem_side_port::system.mem_ctrl.port        40960                       # Cumulative packet size per connected requestor and responder (Byte)
system.membus.pktSize_system.cpu.dcache.mem_side_port::system.mem_ctrl.port  33529223360                       # Cumulative packet size per connected requestor and responder (Byte)
system.membus.pktSize::total              33529264320                       # Cumulative packet size per connected requestor and responder (Byte)
system.membus.snoops                                0                       # Total snoops (Count)
system.membus.snoopTraffic                          0                       # Total snoop traffic (Byte)
system.membus.snoopFanout::samples          261951038                       # Request fanout histogram (Count)
system.membus.snoopFanout::mean              0.000019                       # Request fanout histogram (Count)
system.membus.snoopFanout::stdev             0.004372                       # Request fanout histogram (Count)
system.membus.snoopFanout::underflows               0      0.00%      0.00% # Request fanout histogram (Count)
system.membus.snoopFanout::0                261946030    100.00%    100.00% # Request fanout histogram (Count)
system.membus.snoopFanout::1                     5008      0.00%    100.00% # Request fanout histogram (Count)
system.membus.snoopFanout::2                        0      0.00%    100.00% # Request fanout histogram (Count)
system.membus.snoopFanout::overflows                0      0.00%    100.00% # Request fanout histogram (Count)
system.membus.snoopFanout::min_value                0                       # Request fanout histogram (Count)
system.membus.snoopFanout::max_value                1                       # Request fanout histogram (Count)
system.membus.snoopFanout::total            261951038                       # Request fanout histogram (Count)
system.membus.power_state.pwrStateResidencyTicks::UNDEFINED 16448377846000                       # Cumulative time (in ticks) in various power states (Tick)
system.membus.reqLayer0.occupancy        1571701343000                       # Layer occupancy (ticks) (Tick)
system.membus.reqLayer0.utilization               0.1                       # Layer utilization (Ratio)
system.membus.respLayer0.occupancy            3020640                       # Layer occupancy (ticks) (Tick)
system.membus.respLayer0.utilization              0.0                       # Layer utilization (Ratio)
system.membus.respLayer1.occupancy       1435894624222                       # Layer occupancy (ticks) (Tick)
system.membus.respLayer1.utilization              0.1                       # Layer utilization (Ratio)
system.membus.snoop_filter.totRequests      523901099                       # Total number of requests made to the snoop filter. (Count)
system.membus.snoop_filter.hitSingleRequests    261950062                       # Number of requests hitting in the snoop filter with a single holder of the requested data. (Count)
system.membus.snoop_filter.hitMultiRequests         5007                       # Number of requests hitting in the snoop filter with multiple (>1) holders of the requested data. (Count)
system.membus.snoop_filter.totSnoops                0                       # Total number of snoops made to the snoop filter. (Count)
system.membus.snoop_filter.hitSingleSnoops            0                       # Number of snoops hitting in the snoop filter with a single holder of the requested data. (Count)
system.membus.snoop_filter.hitMultiSnoops            0                       # Number of snoops hitting in the snoop filter with multiple (>1) holders of the requested data. (Count)
system.workload.inst.arm                            0                       # number of arm instructions executed (Count)
system.workload.inst.quiesce                        0                       # number of quiesce instructions executed (Count)
system.cpu.idleCycles                     12908664819                       # Total number of cycles that the object has spent stopped (Unspecified)
system.cpu.tickCycles                      3539713027                       # Number of cycles that the object actually ticked (Unspecified)

---------- End Simulation Statistics   ----------
